run14a_mol_1
     RDKit          3D

 11 10  0  0  0  0  0  0  0  0999 V2000
    1.2108   -0.1749   -0.3716 C   0  0  0  0  0  0  0  0  0  0  0  0
    0.0339   -0.1891    0.5890 C   0  0  0  0  0  0  0  0  0  0  0  0
   -1.2364    0.3176   -0.0729 C   0  0  0  0  0  0  0  0  0  0  0  0
    1.4119    0.8395   -0.7307 H   0  0  0  0  0  0  0  0  0  0  0  0
    2.1124   -0.5435    0.1276 H   0  0  0  0  0  0  0  0  0  0  0  0
    1.0171   -0.8142   -1.2389 H   0  0  0  0  0  0  0  0  0  0  0  0
   -0.1270   -1.2097    0.9537 H   0  0  0  0  0  0  0  0  0  0  0  0
    0.2657    0.4350    1.4592 H   0  0  0  0  0  0  0  0  0  0  0  0
   -2.0684    0.2978    0.6380 H   0  0  0  0  0  0  0  0  0  0  0  0
   -1.5074   -0.3062   -0.9307 H   0  0  0  0  0  0  0  0  0  0  0  0
   -1.1126    1.3475   -0.4225 H   0  0  0  0  0  0  0  0  0  0  0  0
  1  2  1  0
  2  3  1  0
  1  4  1  0
  1  5  1  0
  1  6  1  0
  2  7  1  0
  2  8  1  0
  3  9  1  0
  3 10  1  0
  3 11  1  0
M  END
>  <smiles>  (1) 
CCC

>  <mol_id>  (1) 
run14a_mol_1

>  <run_id>  (1) 
run14a

>  <original_index>  (1) 
1

>  <Agent>  (1) 
12.5791

>  <Prior>  (1) 
89.1318

>  <Target>  (1) 
-89.1318

>  <Score>  (1) 
0.0

>  <SMILES>  (1) 
c1ccc([*])cc1C1N([*])C(c2ccc([*])cc2)C(C(=O)N[*])C1C(C)C|CCC|CCC|C*|CC(*)C

>  <SMILES_state>  (1) 
0.0

>  <Input_Scaffold>  (1) 
c1ccc([*])cc1C1N([*])C(c2ccc([*])cc2)C(C(=O)N[*])C1

>  <R-groups>  (1) 
C(C)C|CCC|CCC|C*|CC(*)C

>  <DENV_Activity>  (1) 
0.0

>  <DENV_Activity (raw)>  (1) 
0.0

>  <Stereo_Centers>  (1) 
0.0

>  <Stereo_Centers (raw)>  (1) 
0.0

>  <QED>  (1) 
0.0

>  <QED (raw)>  (1) 
0.0

>  <SA>  (1) 
0.0

>  <SA (raw)>  (1) 
0.0

>  <MW>  (1) 
0.0

>  <MW (raw)>  (1) 
0.0

>  <Heavy_Atoms>  (1) 
0.0

>  <Heavy_Atoms (raw)>  (1) 
0.0

>  <LogP>  (1) 
0.0

>  <LogP (raw)>  (1) 
0.0

>  <TPSA>  (1) 
0.0

>  <TPSA (raw)>  (1) 
0.0

>  <HBA>  (1) 
0.0

>  <HBA (raw)>  (1) 
0.0

>  <HBD>  (1) 
0.0

>  <HBD (raw)>  (1) 
0.0

>  <Rotatable_Bonds>  (1) 
0.0

>  <Rotatable_Bonds (raw)>  (1) 
0.0

>  <Ring_Count>  (1) 
0.0

>  <Ring_Count (raw)>  (1) 
0.0

>  <Aromatic_Rings>  (1) 
0.0

>  <Aromatic_Rings (raw)>  (1) 
0.0

>  <Stability_Alerts>  (1) 
0.0

>  <Stability_Alerts (raw)>  (1) 
0.0

>  <step>  (1) 
1.0

$$$$
run14a_mol_1
     RDKit          3D

 11 10  0  0  0  0  0  0  0  0999 V2000
    1.1761   -0.2412    0.4400 C   0  0  0  0  0  0  0  0  0  0  0  0
    0.0215    0.6173   -0.0482 C   0  0  0  0  0  0  0  0  0  0  0  0
   -1.1922   -0.2247   -0.4036 C   0  0  0  0  0  0  0  0  0  0  0  0
    1.4875   -0.9545   -0.3299 H   0  0  0  0  0  0  0  0  0  0  0  0
    2.0369    0.3871    0.6892 H   0  0  0  0  0  0  0  0  0  0  0  0
    0.8951   -0.8038    1.3360 H   0  0  0  0  0  0  0  0  0  0  0  0
    0.3385    1.1895   -0.9271 H   0  0  0  0  0  0  0  0  0  0  0  0
   -0.2506    1.3393    0.7297 H   0  0  0  0  0  0  0  0  0  0  0  0
   -2.0090    0.4152   -0.7519 H   0  0  0  0  0  0  0  0  0  0  0  0
   -0.9557   -0.9375   -1.2001 H   0  0  0  0  0  0  0  0  0  0  0  0
   -1.5480   -0.7868    0.4658 H   0  0  0  0  0  0  0  0  0  0  0  0
  1  2  1  0
  2  3  1  0
  1  4  1  0
  1  5  1  0
  1  6  1  0
  2  7  1  0
  2  8  1  0
  3  9  1  0
  3 10  1  0
  3 11  1  0
M  END
>  <smiles>  (2) 
CCC

>  <mol_id>  (2) 
run14a_mol_1

>  <run_id>  (2) 
run14a

>  <original_index>  (2) 
1

>  <Agent>  (2) 
12.5791

>  <Prior>  (2) 
89.1318

>  <Target>  (2) 
-89.1318

>  <Score>  (2) 
0.0

>  <SMILES>  (2) 
c1ccc([*])cc1C1N([*])C(c2ccc([*])cc2)C(C(=O)N[*])C1C(C)C|CCC|CCC|C*|CC(*)C

>  <SMILES_state>  (2) 
0.0

>  <Input_Scaffold>  (2) 
c1ccc([*])cc1C1N([*])C(c2ccc([*])cc2)C(C(=O)N[*])C1

>  <R-groups>  (2) 
C(C)C|CCC|CCC|C*|CC(*)C

>  <DENV_Activity>  (2) 
0.0

>  <DENV_Activity (raw)>  (2) 
0.0

>  <Stereo_Centers>  (2) 
0.0

>  <Stereo_Centers (raw)>  (2) 
0.0

>  <QED>  (2) 
0.0

>  <QED (raw)>  (2) 
0.0

>  <SA>  (2) 
0.0

>  <SA (raw)>  (2) 
0.0

>  <MW>  (2) 
0.0

>  <MW (raw)>  (2) 
0.0

>  <Heavy_Atoms>  (2) 
0.0

>  <Heavy_Atoms (raw)>  (2) 
0.0

>  <LogP>  (2) 
0.0

>  <LogP (raw)>  (2) 
0.0

>  <TPSA>  (2) 
0.0

>  <TPSA (raw)>  (2) 
0.0

>  <HBA>  (2) 
0.0

>  <HBA (raw)>  (2) 
0.0

>  <HBD>  (2) 
0.0

>  <HBD (raw)>  (2) 
0.0

>  <Rotatable_Bonds>  (2) 
0.0

>  <Rotatable_Bonds (raw)>  (2) 
0.0

>  <Ring_Count>  (2) 
0.0

>  <Ring_Count (raw)>  (2) 
0.0

>  <Aromatic_Rings>  (2) 
0.0

>  <Aromatic_Rings (raw)>  (2) 
0.0

>  <Stability_Alerts>  (2) 
0.0

>  <Stability_Alerts (raw)>  (2) 
0.0

>  <step>  (2) 
1.0

$$$$
run14a_mol_1
     RDKit          3D

 11 10  0  0  0  0  0  0  0  0999 V2000
   -1.2686   -0.0207   -0.1583 C   0  0  0  0  0  0  0  0  0  0  0  0
    0.0698   -0.4548    0.4149 C   0  0  0  0  0  0  0  0  0  0  0  0
    1.2159    0.3640   -0.1548 C   0  0  0  0  0  0  0  0  0  0  0  0
   -1.4718    1.0300    0.0719 H   0  0  0  0  0  0  0  0  0  0  0  0
   -1.2881   -0.1441   -1.2459 H   0  0  0  0  0  0  0  0  0  0  0  0
   -2.0768   -0.6241    0.2666 H   0  0  0  0  0  0  0  0  0  0  0  0
    0.2344   -1.5153    0.1945 H   0  0  0  0  0  0  0  0  0  0  0  0
    0.0517   -0.3476    1.5052 H   0  0  0  0  0  0  0  0  0  0  0  0
    1.2749    0.2528   -1.2423 H   0  0  0  0  0  0  0  0  0  0  0  0
    2.1676    0.0331    0.2727 H   0  0  0  0  0  0  0  0  0  0  0  0
    1.0912    1.4269    0.0755 H   0  0  0  0  0  0  0  0  0  0  0  0
  1  2  1  0
  2  3  1  0
  1  4  1  0
  1  5  1  0
  1  6  1  0
  2  7  1  0
  2  8  1  0
  3  9  1  0
  3 10  1  0
  3 11  1  0
M  END
>  <smiles>  (3) 
CCC

>  <mol_id>  (3) 
run14a_mol_1

>  <run_id>  (3) 
run14a

>  <original_index>  (3) 
1

>  <Agent>  (3) 
12.5791

>  <Prior>  (3) 
89.1318

>  <Target>  (3) 
-89.1318

>  <Score>  (3) 
0.0

>  <SMILES>  (3) 
c1ccc([*])cc1C1N([*])C(c2ccc([*])cc2)C(C(=O)N[*])C1C(C)C|CCC|CCC|C*|CC(*)C

>  <SMILES_state>  (3) 
0.0

>  <Input_Scaffold>  (3) 
c1ccc([*])cc1C1N([*])C(c2ccc([*])cc2)C(C(=O)N[*])C1

>  <R-groups>  (3) 
C(C)C|CCC|CCC|C*|CC(*)C

>  <DENV_Activity>  (3) 
0.0

>  <DENV_Activity (raw)>  (3) 
0.0

>  <Stereo_Centers>  (3) 
0.0

>  <Stereo_Centers (raw)>  (3) 
0.0

>  <QED>  (3) 
0.0

>  <QED (raw)>  (3) 
0.0

>  <SA>  (3) 
0.0

>  <SA (raw)>  (3) 
0.0

>  <MW>  (3) 
0.0

>  <MW (raw)>  (3) 
0.0

>  <Heavy_Atoms>  (3) 
0.0

>  <Heavy_Atoms (raw)>  (3) 
0.0

>  <LogP>  (3) 
0.0

>  <LogP (raw)>  (3) 
0.0

>  <TPSA>  (3) 
0.0

>  <TPSA (raw)>  (3) 
0.0

>  <HBA>  (3) 
0.0

>  <HBA (raw)>  (3) 
0.0

>  <HBD>  (3) 
0.0

>  <HBD (raw)>  (3) 
0.0

>  <Rotatable_Bonds>  (3) 
0.0

>  <Rotatable_Bonds (raw)>  (3) 
0.0

>  <Ring_Count>  (3) 
0.0

>  <Ring_Count (raw)>  (3) 
0.0

>  <Aromatic_Rings>  (3) 
0.0

>  <Aromatic_Rings (raw)>  (3) 
0.0

>  <Stability_Alerts>  (3) 
0.0

>  <Stability_Alerts (raw)>  (3) 
0.0

>  <step>  (3) 
1.0

$$$$
run14a_mol_1
     RDKit          3D

 11 10  0  0  0  0  0  0  0  0999 V2000
    1.2223    0.0664    0.3693 C   0  0  0  0  0  0  0  0  0  0  0  0
   -0.0291    0.4860   -0.3832 C   0  0  0  0  0  0  0  0  0  0  0  0
   -1.2003   -0.4332   -0.0801 C   0  0  0  0  0  0  0  0  0  0  0  0
    1.5241   -0.9490    0.0934 H   0  0  0  0  0  0  0  0  0  0  0  0
    2.0504    0.7426    0.1349 H   0  0  0  0  0  0  0  0  0  0  0  0
    1.0572    0.0937    1.4512 H   0  0  0  0  0  0  0  0  0  0  0  0
    0.1725    0.4768   -1.4601 H   0  0  0  0  0  0  0  0  0  0  0  0
   -0.2919    1.5139   -0.1097 H   0  0  0  0  0  0  0  0  0  0  0  0
   -1.4420   -0.4217    0.9875 H   0  0  0  0  0  0  0  0  0  0  0  0
   -2.0883   -0.1110   -0.6329 H   0  0  0  0  0  0  0  0  0  0  0  0
   -0.9750   -1.4644   -0.3703 H   0  0  0  0  0  0  0  0  0  0  0  0
  1  2  1  0
  2  3  1  0
  1  4  1  0
  1  5  1  0
  1  6  1  0
  2  7  1  0
  2  8  1  0
  3  9  1  0
  3 10  1  0
  3 11  1  0
M  END
>  <smiles>  (4) 
CCC

>  <mol_id>  (4) 
run14a_mol_1

>  <run_id>  (4) 
run14a

>  <original_index>  (4) 
1

>  <Agent>  (4) 
12.5791

>  <Prior>  (4) 
89.1318

>  <Target>  (4) 
-89.1318

>  <Score>  (4) 
0.0

>  <SMILES>  (4) 
c1ccc([*])cc1C1N([*])C(c2ccc([*])cc2)C(C(=O)N[*])C1C(C)C|CCC|CCC|C*|CC(*)C

>  <SMILES_state>  (4) 
0.0

>  <Input_Scaffold>  (4) 
c1ccc([*])cc1C1N([*])C(c2ccc([*])cc2)C(C(=O)N[*])C1

>  <R-groups>  (4) 
C(C)C|CCC|CCC|C*|CC(*)C

>  <DENV_Activity>  (4) 
0.0

>  <DENV_Activity (raw)>  (4) 
0.0

>  <Stereo_Centers>  (4) 
0.0

>  <Stereo_Centers (raw)>  (4) 
0.0

>  <QED>  (4) 
0.0

>  <QED (raw)>  (4) 
0.0

>  <SA>  (4) 
0.0

>  <SA (raw)>  (4) 
0.0

>  <MW>  (4) 
0.0

>  <MW (raw)>  (4) 
0.0

>  <Heavy_Atoms>  (4) 
0.0

>  <Heavy_Atoms (raw)>  (4) 
0.0

>  <LogP>  (4) 
0.0

>  <LogP (raw)>  (4) 
0.0

>  <TPSA>  (4) 
0.0

>  <TPSA (raw)>  (4) 
0.0

>  <HBA>  (4) 
0.0

>  <HBA (raw)>  (4) 
0.0

>  <HBD>  (4) 
0.0

>  <HBD (raw)>  (4) 
0.0

>  <Rotatable_Bonds>  (4) 
0.0

>  <Rotatable_Bonds (raw)>  (4) 
0.0

>  <Ring_Count>  (4) 
0.0

>  <Ring_Count (raw)>  (4) 
0.0

>  <Aromatic_Rings>  (4) 
0.0

>  <Aromatic_Rings (raw)>  (4) 
0.0

>  <Stability_Alerts>  (4) 
0.0

>  <Stability_Alerts (raw)>  (4) 
0.0

>  <step>  (4) 
1.0

$$$$
run14a_mol_1
     RDKit          3D

 11 10  0  0  0  0  0  0  0  0999 V2000
    1.2221   -0.2507   -0.2802 C   0  0  0  0  0  0  0  0  0  0  0  0
    0.0137   -0.0457    0.6177 C   0  0  0  0  0  0  0  0  0  0  0  0
   -1.2324    0.2851   -0.1860 C   0  0  0  0  0  0  0  0  0  0  0  0
    1.0557   -1.0763   -0.9794 H   0  0  0  0  0  0  0  0  0  0  0  0
    2.1055   -0.4873    0.3210 H   0  0  0  0  0  0  0  0  0  0  0  0
    1.4377    0.6524   -0.8601 H   0  0  0  0  0  0  0  0  0  0  0  0
   -0.1618   -0.9532    1.2059 H   0  0  0  0  0  0  0  0  0  0  0  0
    0.2180    0.7662    1.3246 H   0  0  0  0  0  0  0  0  0  0  0  0
   -1.0945    1.2051   -0.7630 H   0  0  0  0  0  0  0  0  0  0  0  0
   -2.0877    0.4280    0.4818 H   0  0  0  0  0  0  0  0  0  0  0  0
   -1.4764   -0.5236   -0.8823 H   0  0  0  0  0  0  0  0  0  0  0  0
  1  2  1  0
  2  3  1  0
  1  4  1  0
  1  5  1  0
  1  6  1  0
  2  7  1  0
  2  8  1  0
  3  9  1  0
  3 10  1  0
  3 11  1  0
M  END
>  <smiles>  (5) 
CCC

>  <mol_id>  (5) 
run14a_mol_1

>  <run_id>  (5) 
run14a

>  <original_index>  (5) 
1

>  <Agent>  (5) 
12.5791

>  <Prior>  (5) 
89.1318

>  <Target>  (5) 
-89.1318

>  <Score>  (5) 
0.0

>  <SMILES>  (5) 
c1ccc([*])cc1C1N([*])C(c2ccc([*])cc2)C(C(=O)N[*])C1C(C)C|CCC|CCC|C*|CC(*)C

>  <SMILES_state>  (5) 
0.0

>  <Input_Scaffold>  (5) 
c1ccc([*])cc1C1N([*])C(c2ccc([*])cc2)C(C(=O)N[*])C1

>  <R-groups>  (5) 
C(C)C|CCC|CCC|C*|CC(*)C

>  <DENV_Activity>  (5) 
0.0

>  <DENV_Activity (raw)>  (5) 
0.0

>  <Stereo_Centers>  (5) 
0.0

>  <Stereo_Centers (raw)>  (5) 
0.0

>  <QED>  (5) 
0.0

>  <QED (raw)>  (5) 
0.0

>  <SA>  (5) 
0.0

>  <SA (raw)>  (5) 
0.0

>  <MW>  (5) 
0.0

>  <MW (raw)>  (5) 
0.0

>  <Heavy_Atoms>  (5) 
0.0

>  <Heavy_Atoms (raw)>  (5) 
0.0

>  <LogP>  (5) 
0.0

>  <LogP (raw)>  (5) 
0.0

>  <TPSA>  (5) 
0.0

>  <TPSA (raw)>  (5) 
0.0

>  <HBA>  (5) 
0.0

>  <HBA (raw)>  (5) 
0.0

>  <HBD>  (5) 
0.0

>  <HBD (raw)>  (5) 
0.0

>  <Rotatable_Bonds>  (5) 
0.0

>  <Rotatable_Bonds (raw)>  (5) 
0.0

>  <Ring_Count>  (5) 
0.0

>  <Ring_Count (raw)>  (5) 
0.0

>  <Aromatic_Rings>  (5) 
0.0

>  <Aromatic_Rings (raw)>  (5) 
0.0

>  <Stability_Alerts>  (5) 
0.0

>  <Stability_Alerts (raw)>  (5) 
0.0

>  <step>  (5) 
1.0

$$$$
run14a_mol_1
     RDKit          3D

 11 10  0  0  0  0  0  0  0  0999 V2000
   -1.2338    0.1243   -0.3118 C   0  0  0  0  0  0  0  0  0  0  0  0
   -0.0439   -0.3821    0.4858 C   0  0  0  0  0  0  0  0  0  0  0  0
    1.2669    0.1640   -0.0548 C   0  0  0  0  0  0  0  0  0  0  0  0
   -1.2949    1.2167   -0.2745 H   0  0  0  0  0  0  0  0  0  0  0  0
   -1.1610   -0.1800   -1.3609 H   0  0  0  0  0  0  0  0  0  0  0  0
   -2.1645   -0.2822    0.0961 H   0  0  0  0  0  0  0  0  0  0  0  0
   -0.0233   -1.4771    0.4547 H   0  0  0  0  0  0  0  0  0  0  0  0
   -0.1564   -0.0880    1.5352 H   0  0  0  0  0  0  0  0  0  0  0  0
    2.1075   -0.2144    0.5352 H   0  0  0  0  0  0  0  0  0  0  0  0
    1.4186   -0.1390   -1.0957 H   0  0  0  0  0  0  0  0  0  0  0  0
    1.2848    1.2576   -0.0093 H   0  0  0  0  0  0  0  0  0  0  0  0
  1  2  1  0
  2  3  1  0
  1  4  1  0
  1  5  1  0
  1  6  1  0
  2  7  1  0
  2  8  1  0
  3  9  1  0
  3 10  1  0
  3 11  1  0
M  END
>  <smiles>  (6) 
CCC

>  <mol_id>  (6) 
run14a_mol_1

>  <run_id>  (6) 
run14a

>  <original_index>  (6) 
1

>  <Agent>  (6) 
12.5791

>  <Prior>  (6) 
89.1318

>  <Target>  (6) 
-89.1318

>  <Score>  (6) 
0.0

>  <SMILES>  (6) 
c1ccc([*])cc1C1N([*])C(c2ccc([*])cc2)C(C(=O)N[*])C1C(C)C|CCC|CCC|C*|CC(*)C

>  <SMILES_state>  (6) 
0.0

>  <Input_Scaffold>  (6) 
c1ccc([*])cc1C1N([*])C(c2ccc([*])cc2)C(C(=O)N[*])C1

>  <R-groups>  (6) 
C(C)C|CCC|CCC|C*|CC(*)C

>  <DENV_Activity>  (6) 
0.0

>  <DENV_Activity (raw)>  (6) 
0.0

>  <Stereo_Centers>  (6) 
0.0

>  <Stereo_Centers (raw)>  (6) 
0.0

>  <QED>  (6) 
0.0

>  <QED (raw)>  (6) 
0.0

>  <SA>  (6) 
0.0

>  <SA (raw)>  (6) 
0.0

>  <MW>  (6) 
0.0

>  <MW (raw)>  (6) 
0.0

>  <Heavy_Atoms>  (6) 
0.0

>  <Heavy_Atoms (raw)>  (6) 
0.0

>  <LogP>  (6) 
0.0

>  <LogP (raw)>  (6) 
0.0

>  <TPSA>  (6) 
0.0

>  <TPSA (raw)>  (6) 
0.0

>  <HBA>  (6) 
0.0

>  <HBA (raw)>  (6) 
0.0

>  <HBD>  (6) 
0.0

>  <HBD (raw)>  (6) 
0.0

>  <Rotatable_Bonds>  (6) 
0.0

>  <Rotatable_Bonds (raw)>  (6) 
0.0

>  <Ring_Count>  (6) 
0.0

>  <Ring_Count (raw)>  (6) 
0.0

>  <Aromatic_Rings>  (6) 
0.0

>  <Aromatic_Rings (raw)>  (6) 
0.0

>  <Stability_Alerts>  (6) 
0.0

>  <Stability_Alerts (raw)>  (6) 
0.0

>  <step>  (6) 
1.0

$$$$
run14a_mol_1
     RDKit          3D

 11 10  0  0  0  0  0  0  0  0999 V2000
    1.2440   -0.1525    0.2531 C   0  0  0  0  0  0  0  0  0  0  0  0
   -0.0008    0.5794   -0.2194 C   0  0  0  0  0  0  0  0  0  0  0  0
   -1.2434   -0.2848   -0.0875 C   0  0  0  0  0  0  0  0  0  0  0  0
    2.1242    0.4895    0.1484 H   0  0  0  0  0  0  0  0  0  0  0  0
    1.1551   -0.4383    1.3061 H   0  0  0  0  0  0  0  0  0  0  0  0
    1.4130   -1.0597   -0.3359 H   0  0  0  0  0  0  0  0  0  0  0  0
   -0.1298    1.4958    0.3672 H   0  0  0  0  0  0  0  0  0  0  0  0
    0.1267    0.8778   -1.2659 H   0  0  0  0  0  0  0  0  0  0  0  0
   -2.1252    0.2636   -0.4335 H   0  0  0  0  0  0  0  0  0  0  0  0
   -1.1530   -1.1961   -0.6873 H   0  0  0  0  0  0  0  0  0  0  0  0
   -1.4109   -0.5747    0.9547 H   0  0  0  0  0  0  0  0  0  0  0  0
  1  2  1  0
  2  3  1  0
  1  4  1  0
  1  5  1  0
  1  6  1  0
  2  7  1  0
  2  8  1  0
  3  9  1  0
  3 10  1  0
  3 11  1  0
M  END
>  <smiles>  (7) 
CCC

>  <mol_id>  (7) 
run14a_mol_1

>  <run_id>  (7) 
run14a

>  <original_index>  (7) 
1

>  <Agent>  (7) 
12.5791

>  <Prior>  (7) 
89.1318

>  <Target>  (7) 
-89.1318

>  <Score>  (7) 
0.0

>  <SMILES>  (7) 
c1ccc([*])cc1C1N([*])C(c2ccc([*])cc2)C(C(=O)N[*])C1C(C)C|CCC|CCC|C*|CC(*)C

>  <SMILES_state>  (7) 
0.0

>  <Input_Scaffold>  (7) 
c1ccc([*])cc1C1N([*])C(c2ccc([*])cc2)C(C(=O)N[*])C1

>  <R-groups>  (7) 
C(C)C|CCC|CCC|C*|CC(*)C

>  <DENV_Activity>  (7) 
0.0

>  <DENV_Activity (raw)>  (7) 
0.0

>  <Stereo_Centers>  (7) 
0.0

>  <Stereo_Centers (raw)>  (7) 
0.0

>  <QED>  (7) 
0.0

>  <QED (raw)>  (7) 
0.0

>  <SA>  (7) 
0.0

>  <SA (raw)>  (7) 
0.0

>  <MW>  (7) 
0.0

>  <MW (raw)>  (7) 
0.0

>  <Heavy_Atoms>  (7) 
0.0

>  <Heavy_Atoms (raw)>  (7) 
0.0

>  <LogP>  (7) 
0.0

>  <LogP (raw)>  (7) 
0.0

>  <TPSA>  (7) 
0.0

>  <TPSA (raw)>  (7) 
0.0

>  <HBA>  (7) 
0.0

>  <HBA (raw)>  (7) 
0.0

>  <HBD>  (7) 
0.0

>  <HBD (raw)>  (7) 
0.0

>  <Rotatable_Bonds>  (7) 
0.0

>  <Rotatable_Bonds (raw)>  (7) 
0.0

>  <Ring_Count>  (7) 
0.0

>  <Ring_Count (raw)>  (7) 
0.0

>  <Aromatic_Rings>  (7) 
0.0

>  <Aromatic_Rings (raw)>  (7) 
0.0

>  <Stability_Alerts>  (7) 
0.0

>  <Stability_Alerts (raw)>  (7) 
0.0

>  <step>  (7) 
1.0

$$$$
run14a_mol_1
     RDKit          3D

 11 10  0  0  0  0  0  0  0  0999 V2000
   -1.1805   -0.4569   -0.1799 C   0  0  0  0  0  0  0  0  0  0  0  0
   -0.0228    0.5126   -0.3473 C   0  0  0  0  0  0  0  0  0  0  0  0
    1.1977    0.0701    0.4420 C   0  0  0  0  0  0  0  0  0  0  0  0
   -2.0463   -0.1170   -0.7569 H   0  0  0  0  0  0  0  0  0  0  0  0
   -1.4804   -0.5323    0.8702 H   0  0  0  0  0  0  0  0  0  0  0  0
   -0.9088   -1.4571   -0.5322 H   0  0  0  0  0  0  0  0  0  0  0  0
    0.2377    0.5900   -1.4087 H   0  0  0  0  0  0  0  0  0  0  0  0
   -0.3309    1.5097   -0.0139 H   0  0  0  0  0  0  0  0  0  0  0  0
    1.5446   -0.9135    0.1094 H   0  0  0  0  0  0  0  0  0  0  0  0
    2.0167    0.7832    0.3056 H   0  0  0  0  0  0  0  0  0  0  0  0
    0.9730    0.0113    1.5118 H   0  0  0  0  0  0  0  0  0  0  0  0
  1  2  1  0
  2  3  1  0
  1  4  1  0
  1  5  1  0
  1  6  1  0
  2  7  1  0
  2  8  1  0
  3  9  1  0
  3 10  1  0
  3 11  1  0
M  END
>  <smiles>  (8) 
CCC

>  <mol_id>  (8) 
run14a_mol_1

>  <run_id>  (8) 
run14a

>  <original_index>  (8) 
1

>  <Agent>  (8) 
12.5791

>  <Prior>  (8) 
89.1318

>  <Target>  (8) 
-89.1318

>  <Score>  (8) 
0.0

>  <SMILES>  (8) 
c1ccc([*])cc1C1N([*])C(c2ccc([*])cc2)C(C(=O)N[*])C1C(C)C|CCC|CCC|C*|CC(*)C

>  <SMILES_state>  (8) 
0.0

>  <Input_Scaffold>  (8) 
c1ccc([*])cc1C1N([*])C(c2ccc([*])cc2)C(C(=O)N[*])C1

>  <R-groups>  (8) 
C(C)C|CCC|CCC|C*|CC(*)C

>  <DENV_Activity>  (8) 
0.0

>  <DENV_Activity (raw)>  (8) 
0.0

>  <Stereo_Centers>  (8) 
0.0

>  <Stereo_Centers (raw)>  (8) 
0.0

>  <QED>  (8) 
0.0

>  <QED (raw)>  (8) 
0.0

>  <SA>  (8) 
0.0

>  <SA (raw)>  (8) 
0.0

>  <MW>  (8) 
0.0

>  <MW (raw)>  (8) 
0.0

>  <Heavy_Atoms>  (8) 
0.0

>  <Heavy_Atoms (raw)>  (8) 
0.0

>  <LogP>  (8) 
0.0

>  <LogP (raw)>  (8) 
0.0

>  <TPSA>  (8) 
0.0

>  <TPSA (raw)>  (8) 
0.0

>  <HBA>  (8) 
0.0

>  <HBA (raw)>  (8) 
0.0

>  <HBD>  (8) 
0.0

>  <HBD (raw)>  (8) 
0.0

>  <Rotatable_Bonds>  (8) 
0.0

>  <Rotatable_Bonds (raw)>  (8) 
0.0

>  <Ring_Count>  (8) 
0.0

>  <Ring_Count (raw)>  (8) 
0.0

>  <Aromatic_Rings>  (8) 
0.0

>  <Aromatic_Rings (raw)>  (8) 
0.0

>  <Stability_Alerts>  (8) 
0.0

>  <Stability_Alerts (raw)>  (8) 
0.0

>  <step>  (8) 
1.0

$$$$
run14a_mol_1
     RDKit          3D

 11 10  0  0  0  0  0  0  0  0999 V2000
   -1.2622    0.0150   -0.2038 C   0  0  0  0  0  0  0  0  0  0  0  0
    0.1311   -0.5881   -0.1444 C   0  0  0  0  0  0  0  0  0  0  0  0
    1.1632    0.4288    0.3128 C   0  0  0  0  0  0  0  0  0  0  0  0
   -1.5749    0.3779    0.7805 H   0  0  0  0  0  0  0  0  0  0  0  0
   -1.9866   -0.7355   -0.5352 H   0  0  0  0  0  0  0  0  0  0  0  0
   -1.2969    0.8541   -0.9061 H   0  0  0  0  0  0  0  0  0  0  0  0
    0.4067   -0.9676   -1.1346 H   0  0  0  0  0  0  0  0  0  0  0  0
    0.1302   -1.4413    0.5429 H   0  0  0  0  0  0  0  0  0  0  0  0
    1.2052    1.2809   -0.3731 H   0  0  0  0  0  0  0  0  0  0  0  0
    0.9271    0.8047    1.3135 H   0  0  0  0  0  0  0  0  0  0  0  0
    2.1569   -0.0288    0.3475 H   0  0  0  0  0  0  0  0  0  0  0  0
  1  2  1  0
  2  3  1  0
  1  4  1  0
  1  5  1  0
  1  6  1  0
  2  7  1  0
  2  8  1  0
  3  9  1  0
  3 10  1  0
  3 11  1  0
M  END
>  <smiles>  (9) 
CCC

>  <mol_id>  (9) 
run14a_mol_1

>  <run_id>  (9) 
run14a

>  <original_index>  (9) 
1

>  <Agent>  (9) 
12.5791

>  <Prior>  (9) 
89.1318

>  <Target>  (9) 
-89.1318

>  <Score>  (9) 
0.0

>  <SMILES>  (9) 
c1ccc([*])cc1C1N([*])C(c2ccc([*])cc2)C(C(=O)N[*])C1C(C)C|CCC|CCC|C*|CC(*)C

>  <SMILES_state>  (9) 
0.0

>  <Input_Scaffold>  (9) 
c1ccc([*])cc1C1N([*])C(c2ccc([*])cc2)C(C(=O)N[*])C1

>  <R-groups>  (9) 
C(C)C|CCC|CCC|C*|CC(*)C

>  <DENV_Activity>  (9) 
0.0

>  <DENV_Activity (raw)>  (9) 
0.0

>  <Stereo_Centers>  (9) 
0.0

>  <Stereo_Centers (raw)>  (9) 
0.0

>  <QED>  (9) 
0.0

>  <QED (raw)>  (9) 
0.0

>  <SA>  (9) 
0.0

>  <SA (raw)>  (9) 
0.0

>  <MW>  (9) 
0.0

>  <MW (raw)>  (9) 
0.0

>  <Heavy_Atoms>  (9) 
0.0

>  <Heavy_Atoms (raw)>  (9) 
0.0

>  <LogP>  (9) 
0.0

>  <LogP (raw)>  (9) 
0.0

>  <TPSA>  (9) 
0.0

>  <TPSA (raw)>  (9) 
0.0

>  <HBA>  (9) 
0.0

>  <HBA (raw)>  (9) 
0.0

>  <HBD>  (9) 
0.0

>  <HBD (raw)>  (9) 
0.0

>  <Rotatable_Bonds>  (9) 
0.0

>  <Rotatable_Bonds (raw)>  (9) 
0.0

>  <Ring_Count>  (9) 
0.0

>  <Ring_Count (raw)>  (9) 
0.0

>  <Aromatic_Rings>  (9) 
0.0

>  <Aromatic_Rings (raw)>  (9) 
0.0

>  <Stability_Alerts>  (9) 
0.0

>  <Stability_Alerts (raw)>  (9) 
0.0

>  <step>  (9) 
1.0

$$$$
run14a_mol_1
     RDKit          3D

 11 10  0  0  0  0  0  0  0  0999 V2000
    1.2105   -0.1098   -0.3968 C   0  0  0  0  0  0  0  0  0  0  0  0
    0.0238   -0.3243    0.5274 C   0  0  0  0  0  0  0  0  0  0  0  0
   -1.2285    0.3545   -0.0012 C   0  0  0  0  0  0  0  0  0  0  0  0
    1.4370    0.9559   -0.5037 H   0  0  0  0  0  0  0  0  0  0  0  0
    2.0988   -0.6074    0.0048 H   0  0  0  0  0  0  0  0  0  0  0  0
    1.0119   -0.5202   -1.3921 H   0  0  0  0  0  0  0  0  0  0  0  0
    0.2602    0.0699    1.5220 H   0  0  0  0  0  0  0  0  0  0  0  0
   -0.1626   -1.3982    0.6384 H   0  0  0  0  0  0  0  0  0  0  0  0
   -1.0790    1.4349   -0.0956 H   0  0  0  0  0  0  0  0  0  0  0  0
   -2.0678    0.1859    0.6807 H   0  0  0  0  0  0  0  0  0  0  0  0
   -1.5042   -0.0412   -0.9839 H   0  0  0  0  0  0  0  0  0  0  0  0
  1  2  1  0
  2  3  1  0
  1  4  1  0
  1  5  1  0
  1  6  1  0
  2  7  1  0
  2  8  1  0
  3  9  1  0
  3 10  1  0
  3 11  1  0
M  END
>  <smiles>  (10) 
CCC

>  <mol_id>  (10) 
run14a_mol_1

>  <run_id>  (10) 
run14a

>  <original_index>  (10) 
1

>  <Agent>  (10) 
12.5791

>  <Prior>  (10) 
89.1318

>  <Target>  (10) 
-89.1318

>  <Score>  (10) 
0.0

>  <SMILES>  (10) 
c1ccc([*])cc1C1N([*])C(c2ccc([*])cc2)C(C(=O)N[*])C1C(C)C|CCC|CCC|C*|CC(*)C

>  <SMILES_state>  (10) 
0.0

>  <Input_Scaffold>  (10) 
c1ccc([*])cc1C1N([*])C(c2ccc([*])cc2)C(C(=O)N[*])C1

>  <R-groups>  (10) 
C(C)C|CCC|CCC|C*|CC(*)C

>  <DENV_Activity>  (10) 
0.0

>  <DENV_Activity (raw)>  (10) 
0.0

>  <Stereo_Centers>  (10) 
0.0

>  <Stereo_Centers (raw)>  (10) 
0.0

>  <QED>  (10) 
0.0

>  <QED (raw)>  (10) 
0.0

>  <SA>  (10) 
0.0

>  <SA (raw)>  (10) 
0.0

>  <MW>  (10) 
0.0

>  <MW (raw)>  (10) 
0.0

>  <Heavy_Atoms>  (10) 
0.0

>  <Heavy_Atoms (raw)>  (10) 
0.0

>  <LogP>  (10) 
0.0

>  <LogP (raw)>  (10) 
0.0

>  <TPSA>  (10) 
0.0

>  <TPSA (raw)>  (10) 
0.0

>  <HBA>  (10) 
0.0

>  <HBA (raw)>  (10) 
0.0

>  <HBD>  (10) 
0.0

>  <HBD (raw)>  (10) 
0.0

>  <Rotatable_Bonds>  (10) 
0.0

>  <Rotatable_Bonds (raw)>  (10) 
0.0

>  <Ring_Count>  (10) 
0.0

>  <Ring_Count (raw)>  (10) 
0.0

>  <Aromatic_Rings>  (10) 
0.0

>  <Aromatic_Rings (raw)>  (10) 
0.0

>  <Stability_Alerts>  (10) 
0.0

>  <Stability_Alerts (raw)>  (10) 
0.0

>  <step>  (10) 
1.0

$$$$
