run14a_mol_3
     RDKit          3D

 65 67  0  0  0  0  0  0  0  0999 V2000
   -0.7115    5.7563   -0.8580 C   0  0  0  0  0  0  0  0  0  0  0  0
   -2.1161    5.2246   -0.6115 C   0  0  0  0  0  0  0  0  0  0  0  0
   -2.1214    3.9641    0.2471 C   0  0  0  0  0  0  0  0  0  0  0  0
   -1.5143    2.8375   -0.4318 N   0  0  0  0  0  0  0  0  0  0  0  0
   -1.0904    1.7259    0.2716 C   0  0  0  0  0  0  0  0  0  0  0  0
   -1.1103    1.6666    1.4965 O   0  0  0  0  0  0  0  0  0  0  0  0
   -0.6044    0.5977   -0.6238 C   0  0  0  0  0  0  0  0  0  0  0  0
   -1.7460   -0.0217   -1.4385 C   0  0  0  0  0  0  0  0  0  0  0  0
   -1.7334   -1.5226   -1.1199 C   0  0  0  0  0  0  0  0  0  0  0  0
   -2.8974   -1.9477   -0.2295 C   0  0  0  0  0  0  0  0  0  0  0  0
   -3.2331   -1.2973    0.9668 C   0  0  0  0  0  0  0  0  0  0  0  0
   -4.3161   -1.7249    1.7383 C   0  0  0  0  0  0  0  0  0  0  0  0
   -5.0840   -2.8128    1.3308 C   0  0  0  0  0  0  0  0  0  0  0  0
   -4.7699   -3.4900    0.1508 C   0  0  0  0  0  0  0  0  0  0  0  0
   -5.6108   -4.6425   -0.3123 C   0  0  0  0  0  0  0  0  0  0  0  0
   -3.6900   -3.0431   -0.6249 C   0  0  0  0  0  0  0  0  0  0  0  0
   -0.3664   -1.7527   -0.6192 N   0  0  0  0  0  0  0  0  0  0  0  0
   -0.1279   -3.0198    0.0735 C   0  0  0  0  0  0  0  0  0  0  0  0
   -0.1633   -4.2049   -0.8847 C   0  0  0  0  0  0  0  0  0  0  0  0
    0.0149   -0.5636    0.1676 C   0  0  0  0  0  0  0  0  0  0  0  0
    1.5196   -0.3656    0.2980 C   0  0  0  0  0  0  0  0  0  0  0  0
    2.0398    0.2147    1.4642 C   0  0  0  0  0  0  0  0  0  0  0  0
    3.4123    0.4368    1.6018 C   0  0  0  0  0  0  0  0  0  0  0  0
    4.2958    0.0841    0.5755 C   0  0  0  0  0  0  0  0  0  0  0  0
    5.7751    0.3392    0.7178 C   0  0  0  0  0  0  0  0  0  0  0  0
    6.1611    1.7267    0.2038 C   0  0  0  0  0  0  0  0  0  0  0  0
    7.6535    1.9776    0.3501 C   0  0  0  0  0  0  0  0  0  0  0  0
    3.7814   -0.4809   -0.5969 C   0  0  0  0  0  0  0  0  0  0  0  0
    2.4088   -0.7011   -0.7347 C   0  0  0  0  0  0  0  0  0  0  0  0
   -0.2041    5.9755    0.0868 H   0  0  0  0  0  0  0  0  0  0  0  0
   -0.7558    6.6814   -1.4415 H   0  0  0  0  0  0  0  0  0  0  0  0
   -0.1046    5.0362   -1.4157 H   0  0  0  0  0  0  0  0  0  0  0  0
   -2.6015    5.0271   -1.5745 H   0  0  0  0  0  0  0  0  0  0  0  0
   -2.7027    6.0005   -0.1062 H   0  0  0  0  0  0  0  0  0  0  0  0
   -3.1532    3.6772    0.4787 H   0  0  0  0  0  0  0  0  0  0  0  0
   -1.6056    4.1389    1.1980 H   0  0  0  0  0  0  0  0  0  0  0  0
   -1.6628    2.7443   -1.4285 H   0  0  0  0  0  0  0  0  0  0  0  0
    0.1227    1.0345   -1.3236 H   0  0  0  0  0  0  0  0  0  0  0  0
   -1.5208    0.1220   -2.5040 H   0  0  0  0  0  0  0  0  0  0  0  0
   -2.7188    0.4481   -1.2552 H   0  0  0  0  0  0  0  0  0  0  0  0
   -1.8349   -2.0539   -2.0754 H   0  0  0  0  0  0  0  0  0  0  0  0
   -2.6646   -0.4452    1.3255 H   0  0  0  0  0  0  0  0  0  0  0  0
   -4.5590   -1.2037    2.6611 H   0  0  0  0  0  0  0  0  0  0  0  0
   -5.9265   -3.1287    1.9412 H   0  0  0  0  0  0  0  0  0  0  0  0
   -6.0569   -5.1686    0.5383 H   0  0  0  0  0  0  0  0  0  0  0  0
   -5.0053   -5.3706   -0.8623 H   0  0  0  0  0  0  0  0  0  0  0  0
   -6.4123   -4.2825   -0.9647 H   0  0  0  0  0  0  0  0  0  0  0  0
   -3.4621   -3.5627   -1.5544 H   0  0  0  0  0  0  0  0  0  0  0  0
    0.8736   -3.0165    0.5205 H   0  0  0  0  0  0  0  0  0  0  0  0
   -0.8240   -3.1796    0.9043 H   0  0  0  0  0  0  0  0  0  0  0  0
    0.5675   -4.0782   -1.6908 H   0  0  0  0  0  0  0  0  0  0  0  0
    0.0890   -5.1256   -0.3482 H   0  0  0  0  0  0  0  0  0  0  0  0
   -1.1480   -4.3452   -1.3366 H   0  0  0  0  0  0  0  0  0  0  0  0
   -0.4118   -0.6516    1.1741 H   0  0  0  0  0  0  0  0  0  0  0  0
    1.3733    0.5066    2.2746 H   0  0  0  0  0  0  0  0  0  0  0  0
    3.7854    0.8913    2.5167 H   0  0  0  0  0  0  0  0  0  0  0  0
    6.3318   -0.4344    0.1737 H   0  0  0  0  0  0  0  0  0  0  0  0
    6.0633    0.2321    1.7713 H   0  0  0  0  0  0  0  0  0  0  0  0
    5.8814    1.8300   -0.8517 H   0  0  0  0  0  0  0  0  0  0  0  0
    5.6114    2.5000    0.7542 H   0  0  0  0  0  0  0  0  0  0  0  0
    8.2323    1.2434   -0.2194 H   0  0  0  0  0  0  0  0  0  0  0  0
    7.9086    2.9744   -0.0229 H   0  0  0  0  0  0  0  0  0  0  0  0
    7.9601    1.9187    1.3993 H   0  0  0  0  0  0  0  0  0  0  0  0
    4.4462   -0.7535   -1.4131 H   0  0  0  0  0  0  0  0  0  0  0  0
    2.0330   -1.1424   -1.6554 H   0  0  0  0  0  0  0  0  0  0  0  0
  1  2  1  0
  2  3  1  0
  3  4  1  0
  4  5  1  0
  5  6  2  0
  5  7  1  0
  7  8  1  0
  8  9  1  0
  9 10  1  0
 10 11  2  0
 11 12  1  0
 12 13  2  0
 13 14  1  0
 14 15  1  0
 14 16  2  0
  9 17  1  0
 17 18  1  0
 18 19  1  0
 17 20  1  0
 20 21  1  0
 21 22  2  0
 22 23  1  0
 23 24  2  0
 24 25  1  0
 25 26  1  0
 26 27  1  0
 24 28  1  0
 28 29  2  0
 20  7  1  0
 29 21  1  0
 16 10  1  0
  1 30  1  0
  1 31  1  0
  1 32  1  0
  2 33  1  0
  2 34  1  0
  3 35  1  0
  3 36  1  0
  4 37  1  0
  7 38  1  0
  8 39  1  0
  8 40  1  0
  9 41  1  0
 11 42  1  0
 12 43  1  0
 13 44  1  0
 15 45  1  0
 15 46  1  0
 15 47  1  0
 16 48  1  0
 18 49  1  0
 18 50  1  0
 19 51  1  0
 19 52  1  0
 19 53  1  0
 20 54  1  0
 22 55  1  0
 23 56  1  0
 25 57  1  0
 25 58  1  0
 26 59  1  0
 26 60  1  0
 27 61  1  0
 27 62  1  0
 27 63  1  0
 28 64  1  0
 29 65  1  0
M  END
>  <smiles>  (1) 
CCCNC(=O)C1CC(c2cccc(C)c2)N(CC)C1c1ccc(CCC)cc1

>  <mol_id>  (1) 
run14a_mol_3

>  <run_id>  (1) 
run14a

>  <original_index>  (1) 
3

>  <Agent>  (1) 
12.9912

>  <Prior>  (1) 
37.3722

>  <Target>  (1) 
72.1798

>  <Score>  (1) 
0.7303468

>  <SMILES>  (1) 
CCCNC(=O)C1CC(c2cccc(C)c2)N(CC)C1c1ccc(CCC)cc1

>  <SMILES_state>  (1) 
1.0

>  <Input_Scaffold>  (1) 
c1ccc([*])cc1C1N([*])C(c2ccc([*])cc2)C(C(=O)N[*])C1

>  <R-groups>  (1) 
C*|CC*|CCC*|CCC*

>  <Scaffold>  (1) 
c1ccc(C2CCC(c3ccccc3)N2)cc1

>  <DENV_Activity>  (1) 
0.9470427

>  <DENV_Activity (raw)>  (1) 
7.591

>  <Stereo_Centers>  (1) 
1e-05

>  <Stereo_Centers (raw)>  (1) 
3.0

>  <QED>  (1) 
0.6342391

>  <QED (raw)>  (1) 
0.6342

>  <SA>  (1) 
0.3881982

>  <SA (raw)>  (1) 
3.3611

>  <MW>  (1) 
0.9997275

>  <MW (raw)>  (1) 
392.587

>  <Heavy_Atoms>  (1) 
0.9434421

>  <Heavy_Atoms (raw)>  (1) 
29.0

>  <LogP>  (1) 
0.059888

>  <LogP (raw)>  (1) 
5.5979

>  <TPSA>  (1) 
0.7105401

>  <TPSA (raw)>  (1) 
32.34

>  <HBA>  (1) 
0.9968477

>  <HBA (raw)>  (1) 
2.0

>  <HBD>  (1) 
0.9467598

>  <HBD (raw)>  (1) 
1.0

>  <Rotatable_Bonds>  (1) 
0.0112369

>  <Rotatable_Bonds (raw)>  (1) 
8.0

>  <Ring_Count>  (1) 
0.8720069

>  <Ring_Count (raw)>  (1) 
3.0

>  <Aromatic_Rings>  (1) 
0.5

>  <Aromatic_Rings (raw)>  (1) 
2.0

>  <Stability_Alerts>  (1) 
1.0

>  <Stability_Alerts (raw)>  (1) 
1.0

>  <matchting_patterns (Stability_Alerts)>  (1) 
[]

>  <step>  (1) 
1.0

$$$$
run14a_mol_3
     RDKit          3D

 65 67  0  0  0  0  0  0  0  0999 V2000
   -3.0312    5.7678    1.9957 C   0  0  0  0  0  0  0  0  0  0  0  0
   -2.5815    4.3399    1.7358 C   0  0  0  0  0  0  0  0  0  0  0  0
   -2.0664    4.1660    0.3122 C   0  0  0  0  0  0  0  0  0  0  0  0
   -1.6410    2.8002    0.0724 N   0  0  0  0  0  0  0  0  0  0  0  0
   -0.8683    2.4937   -1.0296 C   0  0  0  0  0  0  0  0  0  0  0  0
   -0.4218    3.3582   -1.7799 O   0  0  0  0  0  0  0  0  0  0  0  0
   -0.5635    1.0188   -1.2465 C   0  0  0  0  0  0  0  0  0  0  0  0
   -1.8080    0.1402   -1.2977 C   0  0  0  0  0  0  0  0  0  0  0  0
   -1.7350   -0.7411   -0.0456 C   0  0  0  0  0  0  0  0  0  0  0  0
   -2.4853   -2.0358   -0.2835 C   0  0  0  0  0  0  0  0  0  0  0  0
   -1.9524   -3.0564   -1.0861 C   0  0  0  0  0  0  0  0  0  0  0  0
   -2.6711   -4.2285   -1.3186 C   0  0  0  0  0  0  0  0  0  0  0  0
   -3.9344   -4.3970   -0.7543 C   0  0  0  0  0  0  0  0  0  0  0  0
   -4.4864   -3.3986    0.0551 C   0  0  0  0  0  0  0  0  0  0  0  0
   -5.8607   -3.5649    0.6331 C   0  0  0  0  0  0  0  0  0  0  0  0
   -3.7632   -2.2170    0.2721 C   0  0  0  0  0  0  0  0  0  0  0  0
   -0.2868   -0.8804    0.2032 N   0  0  0  0  0  0  0  0  0  0  0  0
    0.0515   -1.2736    1.5836 C   0  0  0  0  0  0  0  0  0  0  0  0
   -0.2138   -2.7391    1.9024 C   0  0  0  0  0  0  0  0  0  0  0  0
    0.2952    0.4538   -0.1084 C   0  0  0  0  0  0  0  0  0  0  0  0
    1.7614    0.3990   -0.5095 C   0  0  0  0  0  0  0  0  0  0  0  0
    2.3151   -0.7139   -1.1594 C   0  0  0  0  0  0  0  0  0  0  0  0
    3.6605   -0.7273   -1.5362 C   0  0  0  0  0  0  0  0  0  0  0  0
    4.4815    0.3766   -1.2811 C   0  0  0  0  0  0  0  0  0  0  0  0
    5.9351    0.3623   -1.6840 C   0  0  0  0  0  0  0  0  0  0  0  0
    6.9006    0.2187   -0.5037 C   0  0  0  0  0  0  0  0  0  0  0  0
    6.8170   -1.1405    0.1769 C   0  0  0  0  0  0  0  0  0  0  0  0
    3.9305    1.4955   -0.6457 C   0  0  0  0  0  0  0  0  0  0  0  0
    2.5855    1.5080   -0.2672 C   0  0  0  0  0  0  0  0  0  0  0  0
   -3.8406    6.0538    1.3165 H   0  0  0  0  0  0  0  0  0  0  0  0
   -3.3971    5.8693    3.0221 H   0  0  0  0  0  0  0  0  0  0  0  0
   -2.2032    6.4708    1.8592 H   0  0  0  0  0  0  0  0  0  0  0  0
   -1.7956    4.0693    2.4511 H   0  0  0  0  0  0  0  0  0  0  0  0
   -3.4201    3.6565    1.9157 H   0  0  0  0  0  0  0  0  0  0  0  0
   -2.8516    4.3969   -0.4166 H   0  0  0  0  0  0  0  0  0  0  0  0
   -1.2232    4.8398    0.1221 H   0  0  0  0  0  0  0  0  0  0  0  0
   -2.1979    2.0666    0.4864 H   0  0  0  0  0  0  0  0  0  0  0  0
   -0.0590    0.9422   -2.2198 H   0  0  0  0  0  0  0  0  0  0  0  0
   -2.7457    0.7061   -1.3382 H   0  0  0  0  0  0  0  0  0  0  0  0
   -1.7676   -0.4619   -2.2154 H   0  0  0  0  0  0  0  0  0  0  0  0
   -2.1944   -0.1969    0.7913 H   0  0  0  0  0  0  0  0  0  0  0  0
   -0.9662   -2.9391   -1.5312 H   0  0  0  0  0  0  0  0  0  0  0  0
   -2.2450   -5.0098   -1.9424 H   0  0  0  0  0  0  0  0  0  0  0  0
   -4.4855   -5.3138   -0.9504 H   0  0  0  0  0  0  0  0  0  0  0  0
   -5.9471   -3.0412    1.5909 H   0  0  0  0  0  0  0  0  0  0  0  0
   -6.0813   -4.6211    0.8203 H   0  0  0  0  0  0  0  0  0  0  0  0
   -6.6083   -3.1646   -0.0585 H   0  0  0  0  0  0  0  0  0  0  0  0
   -4.2021   -1.4319    0.8845 H   0  0  0  0  0  0  0  0  0  0  0  0
    1.1256   -1.1188    1.7467 H   0  0  0  0  0  0  0  0  0  0  0  0
   -0.4655   -0.6392    2.3148 H   0  0  0  0  0  0  0  0  0  0  0  0
   -1.2819   -2.9556    1.9790 H   0  0  0  0  0  0  0  0  0  0  0  0
    0.2343   -2.9937    2.8691 H   0  0  0  0  0  0  0  0  0  0  0  0
    0.2313   -3.3971    1.1491 H   0  0  0  0  0  0  0  0  0  0  0  0
    0.2117    1.0897    0.7847 H   0  0  0  0  0  0  0  0  0  0  0  0
    1.6986   -1.5842   -1.3748 H   0  0  0  0  0  0  0  0  0  0  0  0
    4.0609   -1.6089   -2.0311 H   0  0  0  0  0  0  0  0  0  0  0  0
    6.1177   -0.4388   -2.4114 H   0  0  0  0  0  0  0  0  0  0  0  0
    6.1527    1.2988   -2.2138 H   0  0  0  0  0  0  0  0  0  0  0  0
    7.9234    0.3565   -0.8746 H   0  0  0  0  0  0  0  0  0  0  0  0
    6.7243    1.0062    0.2383 H   0  0  0  0  0  0  0  0  0  0  0  0
    6.9845   -1.9501   -0.5405 H   0  0  0  0  0  0  0  0  0  0  0  0
    7.5807   -1.2170    0.9576 H   0  0  0  0  0  0  0  0  0  0  0  0
    5.8421   -1.2930    0.6497 H   0  0  0  0  0  0  0  0  0  0  0  0
    4.5448    2.3709   -0.4473 H   0  0  0  0  0  0  0  0  0  0  0  0
    2.1837    2.3990    0.2112 H   0  0  0  0  0  0  0  0  0  0  0  0
  1  2  1  0
  2  3  1  0
  3  4  1  0
  4  5  1  0
  5  6  2  0
  5  7  1  0
  7  8  1  0
  8  9  1  0
  9 10  1  0
 10 11  2  0
 11 12  1  0
 12 13  2  0
 13 14  1  0
 14 15  1  0
 14 16  2  0
  9 17  1  0
 17 18  1  0
 18 19  1  0
 17 20  1  0
 20 21  1  0
 21 22  2  0
 22 23  1  0
 23 24  2  0
 24 25  1  0
 25 26  1  0
 26 27  1  0
 24 28  1  0
 28 29  2  0
 20  7  1  0
 29 21  1  0
 16 10  1  0
  1 30  1  0
  1 31  1  0
  1 32  1  0
  2 33  1  0
  2 34  1  0
  3 35  1  0
  3 36  1  0
  4 37  1  0
  7 38  1  0
  8 39  1  0
  8 40  1  0
  9 41  1  0
 11 42  1  0
 12 43  1  0
 13 44  1  0
 15 45  1  0
 15 46  1  0
 15 47  1  0
 16 48  1  0
 18 49  1  0
 18 50  1  0
 19 51  1  0
 19 52  1  0
 19 53  1  0
 20 54  1  0
 22 55  1  0
 23 56  1  0
 25 57  1  0
 25 58  1  0
 26 59  1  0
 26 60  1  0
 27 61  1  0
 27 62  1  0
 27 63  1  0
 28 64  1  0
 29 65  1  0
M  END
>  <smiles>  (2) 
CCCNC(=O)C1CC(c2cccc(C)c2)N(CC)C1c1ccc(CCC)cc1

>  <mol_id>  (2) 
run14a_mol_3

>  <run_id>  (2) 
run14a

>  <original_index>  (2) 
3

>  <Agent>  (2) 
12.9912

>  <Prior>  (2) 
37.3722

>  <Target>  (2) 
72.1798

>  <Score>  (2) 
0.7303468

>  <SMILES>  (2) 
CCCNC(=O)C1CC(c2cccc(C)c2)N(CC)C1c1ccc(CCC)cc1

>  <SMILES_state>  (2) 
1.0

>  <Input_Scaffold>  (2) 
c1ccc([*])cc1C1N([*])C(c2ccc([*])cc2)C(C(=O)N[*])C1

>  <R-groups>  (2) 
C*|CC*|CCC*|CCC*

>  <Scaffold>  (2) 
c1ccc(C2CCC(c3ccccc3)N2)cc1

>  <DENV_Activity>  (2) 
0.9470427

>  <DENV_Activity (raw)>  (2) 
7.591

>  <Stereo_Centers>  (2) 
1e-05

>  <Stereo_Centers (raw)>  (2) 
3.0

>  <QED>  (2) 
0.6342391

>  <QED (raw)>  (2) 
0.6342

>  <SA>  (2) 
0.3881982

>  <SA (raw)>  (2) 
3.3611

>  <MW>  (2) 
0.9997275

>  <MW (raw)>  (2) 
392.587

>  <Heavy_Atoms>  (2) 
0.9434421

>  <Heavy_Atoms (raw)>  (2) 
29.0

>  <LogP>  (2) 
0.059888

>  <LogP (raw)>  (2) 
5.5979

>  <TPSA>  (2) 
0.7105401

>  <TPSA (raw)>  (2) 
32.34

>  <HBA>  (2) 
0.9968477

>  <HBA (raw)>  (2) 
2.0

>  <HBD>  (2) 
0.9467598

>  <HBD (raw)>  (2) 
1.0

>  <Rotatable_Bonds>  (2) 
0.0112369

>  <Rotatable_Bonds (raw)>  (2) 
8.0

>  <Ring_Count>  (2) 
0.8720069

>  <Ring_Count (raw)>  (2) 
3.0

>  <Aromatic_Rings>  (2) 
0.5

>  <Aromatic_Rings (raw)>  (2) 
2.0

>  <Stability_Alerts>  (2) 
1.0

>  <Stability_Alerts (raw)>  (2) 
1.0

>  <matchting_patterns (Stability_Alerts)>  (2) 
[]

>  <step>  (2) 
1.0

$$$$
run14a_mol_3
     RDKit          3D

 65 67  0  0  0  0  0  0  0  0999 V2000
   -2.8580    5.5377    0.8384 C   0  0  0  0  0  0  0  0  0  0  0  0
   -3.3244    5.0026   -0.5081 C   0  0  0  0  0  0  0  0  0  0  0  0
   -2.2357    4.2371   -1.2540 C   0  0  0  0  0  0  0  0  0  0  0  0
   -1.9156    2.9720   -0.6234 N   0  0  0  0  0  0  0  0  0  0  0  0
   -1.1916    2.0102   -1.3058 C   0  0  0  0  0  0  0  0  0  0  0  0
   -0.8872    2.1231   -2.4881 O   0  0  0  0  0  0  0  0  0  0  0  0
   -0.8244    0.8119   -0.4426 C   0  0  0  0  0  0  0  0  0  0  0  0
   -2.0584    0.0156   -0.0291 C   0  0  0  0  0  0  0  0  0  0  0  0
   -1.9833   -1.2599   -0.8624 C   0  0  0  0  0  0  0  0  0  0  0  0
   -2.8044   -2.3664   -0.2295 C   0  0  0  0  0  0  0  0  0  0  0  0
   -4.0884   -2.6463   -0.7191 C   0  0  0  0  0  0  0  0  0  0  0  0
   -4.8655   -3.6509   -0.1415 C   0  0  0  0  0  0  0  0  0  0  0  0
   -4.3740   -4.3833    0.9385 C   0  0  0  0  0  0  0  0  0  0  0  0
   -3.1053   -4.1098    1.4590 C   0  0  0  0  0  0  0  0  0  0  0  0
   -2.5580   -4.9184    2.5973 C   0  0  0  0  0  0  0  0  0  0  0  0
   -2.3259   -3.1084    0.8642 C   0  0  0  0  0  0  0  0  0  0  0  0
   -0.5293   -1.5282   -0.9377 N   0  0  0  0  0  0  0  0  0  0  0  0
   -0.2423   -2.5023   -2.0085 C   0  0  0  0  0  0  0  0  0  0  0  0
    1.2056   -2.9746   -2.0517 C   0  0  0  0  0  0  0  0  0  0  0  0
    0.0809   -0.1933   -1.1843 C   0  0  0  0  0  0  0  0  0  0  0  0
    1.5039   -0.0561   -0.6631 C   0  0  0  0  0  0  0  0  0  0  0  0
    2.4121    0.7646   -1.3486 C   0  0  0  0  0  0  0  0  0  0  0  0
    3.7145    0.9392   -0.8748 C   0  0  0  0  0  0  0  0  0  0  0  0
    4.1362    0.2997    0.2966 C   0  0  0  0  0  0  0  0  0  0  0  0
    5.5379    0.4995    0.8156 C   0  0  0  0  0  0  0  0  0  0  0  0
    5.6236    1.6959    1.7641 C   0  0  0  0  0  0  0  0  0  0  0  0
    7.0390    1.8919    2.2837 C   0  0  0  0  0  0  0  0  0  0  0  0
    3.2286   -0.5057    0.9940 C   0  0  0  0  0  0  0  0  0  0  0  0
    1.9259   -0.6791    0.5210 C   0  0  0  0  0  0  0  0  0  0  0  0
   -2.6009    4.7269    1.5264 H   0  0  0  0  0  0  0  0  0  0  0  0
   -1.9808    6.1821    0.7217 H   0  0  0  0  0  0  0  0  0  0  0  0
   -3.6530    6.1297    1.3030 H   0  0  0  0  0  0  0  0  0  0  0  0
   -3.6426    5.8509   -1.1254 H   0  0  0  0  0  0  0  0  0  0  0  0
   -4.2017    4.3622   -0.3599 H   0  0  0  0  0  0  0  0  0  0  0  0
   -2.5684    4.0357   -2.2788 H   0  0  0  0  0  0  0  0  0  0  0  0
   -1.3125    4.8241   -1.3167 H   0  0  0  0  0  0  0  0  0  0  0  0
   -1.8813    2.9402    0.3878 H   0  0  0  0  0  0  0  0  0  0  0  0
   -0.3441    1.2092    0.4625 H   0  0  0  0  0  0  0  0  0  0  0  0
   -1.9956   -0.2036    1.0453 H   0  0  0  0  0  0  0  0  0  0  0  0
   -3.0049    0.5416   -0.1965 H   0  0  0  0  0  0  0  0  0  0  0  0
   -2.3677   -1.0453   -1.8707 H   0  0  0  0  0  0  0  0  0  0  0  0
   -4.4911   -2.0857   -1.5597 H   0  0  0  0  0  0  0  0  0  0  0  0
   -5.8551   -3.8657   -0.5361 H   0  0  0  0  0  0  0  0  0  0  0  0
   -4.9878   -5.1694    1.3720 H   0  0  0  0  0  0  0  0  0  0  0  0
   -2.0081   -5.7825    2.2119 H   0  0  0  0  0  0  0  0  0  0  0  0
   -3.3640   -5.2735    3.2481 H   0  0  0  0  0  0  0  0  0  0  0  0
   -1.8840   -4.3158    3.2153 H   0  0  0  0  0  0  0  0  0  0  0  0
   -1.3282   -2.9036    1.2501 H   0  0  0  0  0  0  0  0  0  0  0  0
   -0.5248   -2.1063   -2.9924 H   0  0  0  0  0  0  0  0  0  0  0  0
   -0.8519   -3.4003   -1.8499 H   0  0  0  0  0  0  0  0  0  0  0  0
    1.5351   -3.3370   -1.0727 H   0  0  0  0  0  0  0  0  0  0  0  0
    1.3030   -3.8038   -2.7608 H   0  0  0  0  0  0  0  0  0  0  0  0
    1.8834   -2.1848   -2.3859 H   0  0  0  0  0  0  0  0  0  0  0  0
    0.0826   -0.0061   -2.2656 H   0  0  0  0  0  0  0  0  0  0  0  0
    2.1069    1.2771   -2.2597 H   0  0  0  0  0  0  0  0  0  0  0  0
    4.3978    1.5802   -1.4272 H   0  0  0  0  0  0  0  0  0  0  0  0
    5.8704   -0.4132    1.3263 H   0  0  0  0  0  0  0  0  0  0  0  0
    6.2231    0.6373   -0.0305 H   0  0  0  0  0  0  0  0  0  0  0  0
    5.3000    2.6094    1.2505 H   0  0  0  0  0  0  0  0  0  0  0  0
    4.9456    1.5534    2.6144 H   0  0  0  0  0  0  0  0  0  0  0  0
    7.7372    2.0743    1.4606 H   0  0  0  0  0  0  0  0  0  0  0  0
    7.3799    1.0100    2.8354 H   0  0  0  0  0  0  0  0  0  0  0  0
    7.0789    2.7517    2.9598 H   0  0  0  0  0  0  0  0  0  0  0  0
    3.5296   -1.0056    1.9116 H   0  0  0  0  0  0  0  0  0  0  0  0
    1.2384   -1.3124    1.0778 H   0  0  0  0  0  0  0  0  0  0  0  0
  1  2  1  0
  2  3  1  0
  3  4  1  0
  4  5  1  0
  5  6  2  0
  5  7  1  0
  7  8  1  0
  8  9  1  0
  9 10  1  0
 10 11  2  0
 11 12  1  0
 12 13  2  0
 13 14  1  0
 14 15  1  0
 14 16  2  0
  9 17  1  0
 17 18  1  0
 18 19  1  0
 17 20  1  0
 20 21  1  0
 21 22  2  0
 22 23  1  0
 23 24  2  0
 24 25  1  0
 25 26  1  0
 26 27  1  0
 24 28  1  0
 28 29  2  0
 20  7  1  0
 29 21  1  0
 16 10  1  0
  1 30  1  0
  1 31  1  0
  1 32  1  0
  2 33  1  0
  2 34  1  0
  3 35  1  0
  3 36  1  0
  4 37  1  0
  7 38  1  0
  8 39  1  0
  8 40  1  0
  9 41  1  0
 11 42  1  0
 12 43  1  0
 13 44  1  0
 15 45  1  0
 15 46  1  0
 15 47  1  0
 16 48  1  0
 18 49  1  0
 18 50  1  0
 19 51  1  0
 19 52  1  0
 19 53  1  0
 20 54  1  0
 22 55  1  0
 23 56  1  0
 25 57  1  0
 25 58  1  0
 26 59  1  0
 26 60  1  0
 27 61  1  0
 27 62  1  0
 27 63  1  0
 28 64  1  0
 29 65  1  0
M  END
>  <smiles>  (3) 
CCCNC(=O)C1CC(c2cccc(C)c2)N(CC)C1c1ccc(CCC)cc1

>  <mol_id>  (3) 
run14a_mol_3

>  <run_id>  (3) 
run14a

>  <original_index>  (3) 
3

>  <Agent>  (3) 
12.9912

>  <Prior>  (3) 
37.3722

>  <Target>  (3) 
72.1798

>  <Score>  (3) 
0.7303468

>  <SMILES>  (3) 
CCCNC(=O)C1CC(c2cccc(C)c2)N(CC)C1c1ccc(CCC)cc1

>  <SMILES_state>  (3) 
1.0

>  <Input_Scaffold>  (3) 
c1ccc([*])cc1C1N([*])C(c2ccc([*])cc2)C(C(=O)N[*])C1

>  <R-groups>  (3) 
C*|CC*|CCC*|CCC*

>  <Scaffold>  (3) 
c1ccc(C2CCC(c3ccccc3)N2)cc1

>  <DENV_Activity>  (3) 
0.9470427

>  <DENV_Activity (raw)>  (3) 
7.591

>  <Stereo_Centers>  (3) 
1e-05

>  <Stereo_Centers (raw)>  (3) 
3.0

>  <QED>  (3) 
0.6342391

>  <QED (raw)>  (3) 
0.6342

>  <SA>  (3) 
0.3881982

>  <SA (raw)>  (3) 
3.3611

>  <MW>  (3) 
0.9997275

>  <MW (raw)>  (3) 
392.587

>  <Heavy_Atoms>  (3) 
0.9434421

>  <Heavy_Atoms (raw)>  (3) 
29.0

>  <LogP>  (3) 
0.059888

>  <LogP (raw)>  (3) 
5.5979

>  <TPSA>  (3) 
0.7105401

>  <TPSA (raw)>  (3) 
32.34

>  <HBA>  (3) 
0.9968477

>  <HBA (raw)>  (3) 
2.0

>  <HBD>  (3) 
0.9467598

>  <HBD (raw)>  (3) 
1.0

>  <Rotatable_Bonds>  (3) 
0.0112369

>  <Rotatable_Bonds (raw)>  (3) 
8.0

>  <Ring_Count>  (3) 
0.8720069

>  <Ring_Count (raw)>  (3) 
3.0

>  <Aromatic_Rings>  (3) 
0.5

>  <Aromatic_Rings (raw)>  (3) 
2.0

>  <Stability_Alerts>  (3) 
1.0

>  <Stability_Alerts (raw)>  (3) 
1.0

>  <matchting_patterns (Stability_Alerts)>  (3) 
[]

>  <step>  (3) 
1.0

$$$$
run14a_mol_3
     RDKit          3D

 65 67  0  0  0  0  0  0  0  0999 V2000
   -4.6512    3.5415   -2.6957 C   0  0  0  0  0  0  0  0  0  0  0  0
   -3.4278    4.4445   -2.7634 C   0  0  0  0  0  0  0  0  0  0  0  0
   -2.1389    3.6650   -3.0030 C   0  0  0  0  0  0  0  0  0  0  0  0
   -1.8016    2.8123   -1.8811 N   0  0  0  0  0  0  0  0  0  0  0  0
   -0.8975    1.7754   -2.0267 C   0  0  0  0  0  0  0  0  0  0  0  0
   -0.3923    1.4843   -3.1055 O   0  0  0  0  0  0  0  0  0  0  0  0
   -0.5620    1.0812   -0.7160 C   0  0  0  0  0  0  0  0  0  0  0  0
   -1.7965    0.5414   -0.0003 C   0  0  0  0  0  0  0  0  0  0  0  0
   -1.2748   -0.6719    0.7674 C   0  0  0  0  0  0  0  0  0  0  0  0
   -2.4168   -1.5806    1.1775 C   0  0  0  0  0  0  0  0  0  0  0  0
   -3.0970   -2.3763    0.2425 C   0  0  0  0  0  0  0  0  0  0  0  0
   -4.1523   -3.1971    0.6391 C   0  0  0  0  0  0  0  0  0  0  0  0
   -4.5493   -3.2284    1.9749 C   0  0  0  0  0  0  0  0  0  0  0  0
   -3.9012   -2.4311    2.9240 C   0  0  0  0  0  0  0  0  0  0  0  0
   -4.3052   -2.4901    4.3675 C   0  0  0  0  0  0  0  0  0  0  0  0
   -2.8311   -1.6200    2.5193 C   0  0  0  0  0  0  0  0  0  0  0  0
   -0.3302   -1.2511   -0.1870 N   0  0  0  0  0  0  0  0  0  0  0  0
    0.4628   -2.3771    0.2889 C   0  0  0  0  0  0  0  0  0  0  0  0
    1.1129   -3.1524   -0.8520 C   0  0  0  0  0  0  0  0  0  0  0  0
    0.3509   -0.1498   -0.9061 C   0  0  0  0  0  0  0  0  0  0  0  0
    1.7787    0.1953   -0.4887 C   0  0  0  0  0  0  0  0  0  0  0  0
    2.7714    0.2839   -1.4775 C   0  0  0  0  0  0  0  0  0  0  0  0
    4.0872    0.6209   -1.1498 C   0  0  0  0  0  0  0  0  0  0  0  0
    4.4437    0.8876    0.1762 C   0  0  0  0  0  0  0  0  0  0  0  0
    5.8669    1.2395    0.5312 C   0  0  0  0  0  0  0  0  0  0  0  0
    6.8301    0.0504    0.4672 C   0  0  0  0  0  0  0  0  0  0  0  0
    6.5571   -1.0005    1.5345 C   0  0  0  0  0  0  0  0  0  0  0  0
    3.4577    0.8173    1.1658 C   0  0  0  0  0  0  0  0  0  0  0  0
    2.1412    0.4811    0.8365 C   0  0  0  0  0  0  0  0  0  0  0  0
   -4.7608    2.9605   -3.6169 H   0  0  0  0  0  0  0  0  0  0  0  0
   -4.5864    2.8442   -1.8545 H   0  0  0  0  0  0  0  0  0  0  0  0
   -5.5565    4.1428   -2.5645 H   0  0  0  0  0  0  0  0  0  0  0  0
   -3.3529    5.0204   -1.8335 H   0  0  0  0  0  0  0  0  0  0  0  0
   -3.5649    5.1632   -3.5795 H   0  0  0  0  0  0  0  0  0  0  0  0
   -2.2152    3.0585   -3.9125 H   0  0  0  0  0  0  0  0  0  0  0  0
   -1.3033    4.3607   -3.1381 H   0  0  0  0  0  0  0  0  0  0  0  0
   -1.9501    3.1786   -0.9498 H   0  0  0  0  0  0  0  0  0  0  0  0
   -0.0909    1.8347   -0.0700 H   0  0  0  0  0  0  0  0  0  0  0  0
   -2.2305    1.2875    0.6756 H   0  0  0  0  0  0  0  0  0  0  0  0
   -2.5762    0.2710   -0.7252 H   0  0  0  0  0  0  0  0  0  0  0  0
   -0.7355   -0.3341    1.6614 H   0  0  0  0  0  0  0  0  0  0  0  0
   -2.7944   -2.3658   -0.8031 H   0  0  0  0  0  0  0  0  0  0  0  0
   -4.6614   -3.8159   -0.0949 H   0  0  0  0  0  0  0  0  0  0  0  0
   -5.3683   -3.8800    2.2704 H   0  0  0  0  0  0  0  0  0  0  0  0
   -5.3711   -2.7211    4.4663 H   0  0  0  0  0  0  0  0  0  0  0  0
   -3.7267   -3.2605    4.8866 H   0  0  0  0  0  0  0  0  0  0  0  0
   -4.1353   -1.5269    4.8599 H   0  0  0  0  0  0  0  0  0  0  0  0
   -2.3145   -1.0134    3.2606 H   0  0  0  0  0  0  0  0  0  0  0  0
    1.2189   -2.0751    1.0202 H   0  0  0  0  0  0  0  0  0  0  0  0
   -0.1848   -3.0902    0.8130 H   0  0  0  0  0  0  0  0  0  0  0  0
    1.6189   -4.0399   -0.4577 H   0  0  0  0  0  0  0  0  0  0  0  0
    0.3617   -3.4907   -1.5739 H   0  0  0  0  0  0  0  0  0  0  0  0
    1.8590   -2.5592   -1.3866 H   0  0  0  0  0  0  0  0  0  0  0  0
    0.3719   -0.4656   -1.9558 H   0  0  0  0  0  0  0  0  0  0  0  0
    2.5229    0.0922   -2.5206 H   0  0  0  0  0  0  0  0  0  0  0  0
    4.8315    0.6759   -1.9410 H   0  0  0  0  0  0  0  0  0  0  0  0
    5.9058    1.6943    1.5291 H   0  0  0  0  0  0  0  0  0  0  0  0
    6.2106    2.0175   -0.1627 H   0  0  0  0  0  0  0  0  0  0  0  0
    7.8517    0.4248    0.6050 H   0  0  0  0  0  0  0  0  0  0  0  0
    6.7968   -0.4215   -0.5217 H   0  0  0  0  0  0  0  0  0  0  0  0
    5.5836   -1.4780    1.3873 H   0  0  0  0  0  0  0  0  0  0  0  0
    7.3210   -1.7836    1.4943 H   0  0  0  0  0  0  0  0  0  0  0  0
    6.5782   -0.5584    2.5356 H   0  0  0  0  0  0  0  0  0  0  0  0
    3.7079    1.0202    2.2047 H   0  0  0  0  0  0  0  0  0  0  0  0
    1.4043    0.4379    1.6326 H   0  0  0  0  0  0  0  0  0  0  0  0
  1  2  1  0
  2  3  1  0
  3  4  1  0
  4  5  1  0
  5  6  2  0
  5  7  1  0
  7  8  1  0
  8  9  1  0
  9 10  1  0
 10 11  2  0
 11 12  1  0
 12 13  2  0
 13 14  1  0
 14 15  1  0
 14 16  2  0
  9 17  1  0
 17 18  1  0
 18 19  1  0
 17 20  1  0
 20 21  1  0
 21 22  2  0
 22 23  1  0
 23 24  2  0
 24 25  1  0
 25 26  1  0
 26 27  1  0
 24 28  1  0
 28 29  2  0
 20  7  1  0
 29 21  1  0
 16 10  1  0
  1 30  1  0
  1 31  1  0
  1 32  1  0
  2 33  1  0
  2 34  1  0
  3 35  1  0
  3 36  1  0
  4 37  1  0
  7 38  1  0
  8 39  1  0
  8 40  1  0
  9 41  1  0
 11 42  1  0
 12 43  1  0
 13 44  1  0
 15 45  1  0
 15 46  1  0
 15 47  1  0
 16 48  1  0
 18 49  1  0
 18 50  1  0
 19 51  1  0
 19 52  1  0
 19 53  1  0
 20 54  1  0
 22 55  1  0
 23 56  1  0
 25 57  1  0
 25 58  1  0
 26 59  1  0
 26 60  1  0
 27 61  1  0
 27 62  1  0
 27 63  1  0
 28 64  1  0
 29 65  1  0
M  END
>  <smiles>  (4) 
CCCNC(=O)C1CC(c2cccc(C)c2)N(CC)C1c1ccc(CCC)cc1

>  <mol_id>  (4) 
run14a_mol_3

>  <run_id>  (4) 
run14a

>  <original_index>  (4) 
3

>  <Agent>  (4) 
12.9912

>  <Prior>  (4) 
37.3722

>  <Target>  (4) 
72.1798

>  <Score>  (4) 
0.7303468

>  <SMILES>  (4) 
CCCNC(=O)C1CC(c2cccc(C)c2)N(CC)C1c1ccc(CCC)cc1

>  <SMILES_state>  (4) 
1.0

>  <Input_Scaffold>  (4) 
c1ccc([*])cc1C1N([*])C(c2ccc([*])cc2)C(C(=O)N[*])C1

>  <R-groups>  (4) 
C*|CC*|CCC*|CCC*

>  <Scaffold>  (4) 
c1ccc(C2CCC(c3ccccc3)N2)cc1

>  <DENV_Activity>  (4) 
0.9470427

>  <DENV_Activity (raw)>  (4) 
7.591

>  <Stereo_Centers>  (4) 
1e-05

>  <Stereo_Centers (raw)>  (4) 
3.0

>  <QED>  (4) 
0.6342391

>  <QED (raw)>  (4) 
0.6342

>  <SA>  (4) 
0.3881982

>  <SA (raw)>  (4) 
3.3611

>  <MW>  (4) 
0.9997275

>  <MW (raw)>  (4) 
392.587

>  <Heavy_Atoms>  (4) 
0.9434421

>  <Heavy_Atoms (raw)>  (4) 
29.0

>  <LogP>  (4) 
0.059888

>  <LogP (raw)>  (4) 
5.5979

>  <TPSA>  (4) 
0.7105401

>  <TPSA (raw)>  (4) 
32.34

>  <HBA>  (4) 
0.9968477

>  <HBA (raw)>  (4) 
2.0

>  <HBD>  (4) 
0.9467598

>  <HBD (raw)>  (4) 
1.0

>  <Rotatable_Bonds>  (4) 
0.0112369

>  <Rotatable_Bonds (raw)>  (4) 
8.0

>  <Ring_Count>  (4) 
0.8720069

>  <Ring_Count (raw)>  (4) 
3.0

>  <Aromatic_Rings>  (4) 
0.5

>  <Aromatic_Rings (raw)>  (4) 
2.0

>  <Stability_Alerts>  (4) 
1.0

>  <Stability_Alerts (raw)>  (4) 
1.0

>  <matchting_patterns (Stability_Alerts)>  (4) 
[]

>  <step>  (4) 
1.0

$$$$
run14a_mol_3
     RDKit          3D

 65 67  0  0  0  0  0  0  0  0999 V2000
   -1.1550    7.0620    0.4876 C   0  0  0  0  0  0  0  0  0  0  0  0
   -1.2931    5.5886    0.8323 C   0  0  0  0  0  0  0  0  0  0  0  0
   -0.4410    4.7178   -0.0829 C   0  0  0  0  0  0  0  0  0  0  0  0
   -0.5761    3.3147    0.2531 N   0  0  0  0  0  0  0  0  0  0  0  0
   -0.1544    2.3362   -0.6299 C   0  0  0  0  0  0  0  0  0  0  0  0
    0.2742    2.5956   -1.7492 O   0  0  0  0  0  0  0  0  0  0  0  0
   -0.2262    0.9315   -0.0517 C   0  0  0  0  0  0  0  0  0  0  0  0
   -1.6252    0.5601    0.4297 C   0  0  0  0  0  0  0  0  0  0  0  0
   -1.6864   -0.9552    0.2449 C   0  0  0  0  0  0  0  0  0  0  0  0
   -3.1224   -1.4410    0.2548 C   0  0  0  0  0  0  0  0  0  0  0  0
   -3.9877   -1.2033   -0.8244 C   0  0  0  0  0  0  0  0  0  0  0  0
   -5.3084   -1.6496   -0.7904 C   0  0  0  0  0  0  0  0  0  0  0  0
   -5.7867   -2.3327    0.3266 C   0  0  0  0  0  0  0  0  0  0  0  0
   -4.9511   -2.5662    1.4238 C   0  0  0  0  0  0  0  0  0  0  0  0
   -5.4549   -3.3313    2.6117 C   0  0  0  0  0  0  0  0  0  0  0  0
   -3.6201   -2.1273    1.3750 C   0  0  0  0  0  0  0  0  0  0  0  0
   -0.9772   -1.1345   -1.0214 N   0  0  0  0  0  0  0  0  0  0  0  0
   -0.7338   -2.5090   -1.4391 C   0  0  0  0  0  0  0  0  0  0  0  0
   -0.3576   -2.6093   -2.9135 C   0  0  0  0  0  0  0  0  0  0  0  0
    0.1367   -0.1603   -1.0820 C   0  0  0  0  0  0  0  0  0  0  0  0
    1.5484   -0.6763   -0.8123 C   0  0  0  0  0  0  0  0  0  0  0  0
    2.5688   -0.3683   -1.7262 C   0  0  0  0  0  0  0  0  0  0  0  0
    3.8827   -0.7910   -1.5092 C   0  0  0  0  0  0  0  0  0  0  0  0
    4.2135   -1.5265   -0.3665 C   0  0  0  0  0  0  0  0  0  0  0  0
    5.6334   -1.9776   -0.1298 C   0  0  0  0  0  0  0  0  0  0  0  0
    6.5807   -0.8453    0.2777 C   0  0  0  0  0  0  0  0  0  0  0  0
    6.2705   -0.2694    1.6525 C   0  0  0  0  0  0  0  0  0  0  0  0
    3.2060   -1.8266    0.5563 C   0  0  0  0  0  0  0  0  0  0  0  0
    1.8919   -1.4016    0.3388 C   0  0  0  0  0  0  0  0  0  0  0  0
   -1.7741    7.6677    1.1567 H   0  0  0  0  0  0  0  0  0  0  0  0
   -0.1170    7.3936    0.5921 H   0  0  0  0  0  0  0  0  0  0  0  0
   -1.4762    7.2561   -0.5408 H   0  0  0  0  0  0  0  0  0  0  0  0
   -2.3461    5.2929    0.7525 H   0  0  0  0  0  0  0  0  0  0  0  0
   -0.9999    5.4311    1.8772 H   0  0  0  0  0  0  0  0  0  0  0  0
   -0.7288    4.8617   -1.1306 H   0  0  0  0  0  0  0  0  0  0  0  0
    0.6197    4.9761    0.0116 H   0  0  0  0  0  0  0  0  0  0  0  0
   -0.6307    3.0681    1.2328 H   0  0  0  0  0  0  0  0  0  0  0  0
    0.4525    0.9095    0.8120 H   0  0  0  0  0  0  0  0  0  0  0  0
   -2.3889    1.0824   -0.1621 H   0  0  0  0  0  0  0  0  0  0  0  0
   -1.7807    0.8431    1.4774 H   0  0  0  0  0  0  0  0  0  0  0  0
   -1.1279   -1.4444    1.0529 H   0  0  0  0  0  0  0  0  0  0  0  0
   -3.6264   -0.6757   -1.7054 H   0  0  0  0  0  0  0  0  0  0  0  0
   -5.9627   -1.4677   -1.6388 H   0  0  0  0  0  0  0  0  0  0  0  0
   -6.8164   -2.6821    0.3348 H   0  0  0  0  0  0  0  0  0  0  0  0
   -6.5295   -3.1736    2.7517 H   0  0  0  0  0  0  0  0  0  0  0  0
   -4.9566   -3.0003    3.5290 H   0  0  0  0  0  0  0  0  0  0  0  0
   -5.2694   -4.4009    2.4738 H   0  0  0  0  0  0  0  0  0  0  0  0
   -2.9643   -2.3250    2.2208 H   0  0  0  0  0  0  0  0  0  0  0  0
    0.0213   -3.0050   -0.8214 H   0  0  0  0  0  0  0  0  0  0  0  0
   -1.6490   -3.1005   -1.3162 H   0  0  0  0  0  0  0  0  0  0  0  0
    0.6011   -2.1323   -3.1320 H   0  0  0  0  0  0  0  0  0  0  0  0
   -0.2761   -3.6615   -3.2058 H   0  0  0  0  0  0  0  0  0  0  0  0
   -1.1232   -2.1466   -3.5456 H   0  0  0  0  0  0  0  0  0  0  0  0
    0.1110    0.2381   -2.1032 H   0  0  0  0  0  0  0  0  0  0  0  0
    2.3452    0.2130   -2.6199 H   0  0  0  0  0  0  0  0  0  0  0  0
    4.6470   -0.5379   -2.2406 H   0  0  0  0  0  0  0  0  0  0  0  0
    5.6561   -2.7708    0.6282 H   0  0  0  0  0  0  0  0  0  0  0  0
    6.0039   -2.4402   -1.0537 H   0  0  0  0  0  0  0  0  0  0  0  0
    7.6043   -1.2387    0.2915 H   0  0  0  0  0  0  0  0  0  0  0  0
    6.5617   -0.0390   -0.4648 H   0  0  0  0  0  0  0  0  0  0  0  0
    5.2938    0.2236    1.6697 H   0  0  0  0  0  0  0  0  0  0  0  0
    7.0241    0.4761    1.9259 H   0  0  0  0  0  0  0  0  0  0  0  0
    6.2766   -1.0527    2.4171 H   0  0  0  0  0  0  0  0  0  0  0  0
    3.4372   -2.3918    1.4563 H   0  0  0  0  0  0  0  0  0  0  0  0
    1.1389   -1.6505    1.0803 H   0  0  0  0  0  0  0  0  0  0  0  0
  1  2  1  0
  2  3  1  0
  3  4  1  0
  4  5  1  0
  5  6  2  0
  5  7  1  0
  7  8  1  0
  8  9  1  0
  9 10  1  0
 10 11  2  0
 11 12  1  0
 12 13  2  0
 13 14  1  0
 14 15  1  0
 14 16  2  0
  9 17  1  0
 17 18  1  0
 18 19  1  0
 17 20  1  0
 20 21  1  0
 21 22  2  0
 22 23  1  0
 23 24  2  0
 24 25  1  0
 25 26  1  0
 26 27  1  0
 24 28  1  0
 28 29  2  0
 20  7  1  0
 29 21  1  0
 16 10  1  0
  1 30  1  0
  1 31  1  0
  1 32  1  0
  2 33  1  0
  2 34  1  0
  3 35  1  0
  3 36  1  0
  4 37  1  0
  7 38  1  0
  8 39  1  0
  8 40  1  0
  9 41  1  0
 11 42  1  0
 12 43  1  0
 13 44  1  0
 15 45  1  0
 15 46  1  0
 15 47  1  0
 16 48  1  0
 18 49  1  0
 18 50  1  0
 19 51  1  0
 19 52  1  0
 19 53  1  0
 20 54  1  0
 22 55  1  0
 23 56  1  0
 25 57  1  0
 25 58  1  0
 26 59  1  0
 26 60  1  0
 27 61  1  0
 27 62  1  0
 27 63  1  0
 28 64  1  0
 29 65  1  0
M  END
>  <smiles>  (5) 
CCCNC(=O)C1CC(c2cccc(C)c2)N(CC)C1c1ccc(CCC)cc1

>  <mol_id>  (5) 
run14a_mol_3

>  <run_id>  (5) 
run14a

>  <original_index>  (5) 
3

>  <Agent>  (5) 
12.9912

>  <Prior>  (5) 
37.3722

>  <Target>  (5) 
72.1798

>  <Score>  (5) 
0.7303468

>  <SMILES>  (5) 
CCCNC(=O)C1CC(c2cccc(C)c2)N(CC)C1c1ccc(CCC)cc1

>  <SMILES_state>  (5) 
1.0

>  <Input_Scaffold>  (5) 
c1ccc([*])cc1C1N([*])C(c2ccc([*])cc2)C(C(=O)N[*])C1

>  <R-groups>  (5) 
C*|CC*|CCC*|CCC*

>  <Scaffold>  (5) 
c1ccc(C2CCC(c3ccccc3)N2)cc1

>  <DENV_Activity>  (5) 
0.9470427

>  <DENV_Activity (raw)>  (5) 
7.591

>  <Stereo_Centers>  (5) 
1e-05

>  <Stereo_Centers (raw)>  (5) 
3.0

>  <QED>  (5) 
0.6342391

>  <QED (raw)>  (5) 
0.6342

>  <SA>  (5) 
0.3881982

>  <SA (raw)>  (5) 
3.3611

>  <MW>  (5) 
0.9997275

>  <MW (raw)>  (5) 
392.587

>  <Heavy_Atoms>  (5) 
0.9434421

>  <Heavy_Atoms (raw)>  (5) 
29.0

>  <LogP>  (5) 
0.059888

>  <LogP (raw)>  (5) 
5.5979

>  <TPSA>  (5) 
0.7105401

>  <TPSA (raw)>  (5) 
32.34

>  <HBA>  (5) 
0.9968477

>  <HBA (raw)>  (5) 
2.0

>  <HBD>  (5) 
0.9467598

>  <HBD (raw)>  (5) 
1.0

>  <Rotatable_Bonds>  (5) 
0.0112369

>  <Rotatable_Bonds (raw)>  (5) 
8.0

>  <Ring_Count>  (5) 
0.8720069

>  <Ring_Count (raw)>  (5) 
3.0

>  <Aromatic_Rings>  (5) 
0.5

>  <Aromatic_Rings (raw)>  (5) 
2.0

>  <Stability_Alerts>  (5) 
1.0

>  <Stability_Alerts (raw)>  (5) 
1.0

>  <matchting_patterns (Stability_Alerts)>  (5) 
[]

>  <step>  (5) 
1.0

$$$$
run14a_mol_3
     RDKit          3D

 65 67  0  0  0  0  0  0  0  0999 V2000
   -2.5244   -3.7758   -3.3319 C   0  0  0  0  0  0  0  0  0  0  0  0
   -3.2272   -3.4345   -2.0257 C   0  0  0  0  0  0  0  0  0  0  0  0
   -3.7382   -1.9952   -1.9899 C   0  0  0  0  0  0  0  0  0  0  0  0
   -2.6671   -1.0210   -2.0307 N   0  0  0  0  0  0  0  0  0  0  0  0
   -1.9382   -0.6933   -0.9040 C   0  0  0  0  0  0  0  0  0  0  0  0
   -2.1940   -1.1431    0.2080 O   0  0  0  0  0  0  0  0  0  0  0  0
   -0.8058    0.2804   -1.1852 C   0  0  0  0  0  0  0  0  0  0  0  0
   -1.3239    1.6620   -1.6001 C   0  0  0  0  0  0  0  0  0  0  0  0
   -0.6925    2.6648   -0.6250 C   0  0  0  0  0  0  0  0  0  0  0  0
   -1.6925    3.2180    0.3863 C   0  0  0  0  0  0  0  0  0  0  0  0
   -1.7776    4.6099    0.5657 C   0  0  0  0  0  0  0  0  0  0  0  0
   -2.6805    5.1684    1.4718 C   0  0  0  0  0  0  0  0  0  0  0  0
   -3.5176    4.3455    2.2201 C   0  0  0  0  0  0  0  0  0  0  0  0
   -3.4508    2.9580    2.0736 C   0  0  0  0  0  0  0  0  0  0  0  0
   -4.3717    2.0636    2.8508 C   0  0  0  0  0  0  0  0  0  0  0  0
   -2.5497    2.4073    1.1487 C   0  0  0  0  0  0  0  0  0  0  0  0
    0.4802    1.9387   -0.1032 N   0  0  0  0  0  0  0  0  0  0  0  0
    1.1170    2.4973    1.0905 C   0  0  0  0  0  0  0  0  0  0  0  0
    1.8474    3.8001    0.7851 C   0  0  0  0  0  0  0  0  0  0  0  0
    0.0853    0.5241    0.0411 C   0  0  0  0  0  0  0  0  0  0  0  0
    1.2570   -0.4497    0.0364 C   0  0  0  0  0  0  0  0  0  0  0  0
    2.4059   -0.2312   -0.7394 C   0  0  0  0  0  0  0  0  0  0  0  0
    3.4517   -1.1574   -0.7457 C   0  0  0  0  0  0  0  0  0  0  0  0
    3.3664   -2.3302    0.0130 C   0  0  0  0  0  0  0  0  0  0  0  0
    4.5028   -3.3212    0.0217 C   0  0  0  0  0  0  0  0  0  0  0  0
    5.5169   -3.0080    1.1225 C   0  0  0  0  0  0  0  0  0  0  0  0
    6.6600   -4.0105    1.1258 C   0  0  0  0  0  0  0  0  0  0  0  0
    2.2212   -2.5558    0.7851 C   0  0  0  0  0  0  0  0  0  0  0  0
    1.1764   -1.6283    0.7925 C   0  0  0  0  0  0  0  0  0  0  0  0
   -2.2222   -4.8279   -3.3331 H   0  0  0  0  0  0  0  0  0  0  0  0
   -1.6245   -3.1686   -3.4711 H   0  0  0  0  0  0  0  0  0  0  0  0
   -3.1868   -3.6124   -4.1879 H   0  0  0  0  0  0  0  0  0  0  0  0
   -4.0778   -4.1138   -1.8965 H   0  0  0  0  0  0  0  0  0  0  0  0
   -2.5404   -3.6161   -1.1909 H   0  0  0  0  0  0  0  0  0  0  0  0
   -4.3936   -1.7953   -2.8440 H   0  0  0  0  0  0  0  0  0  0  0  0
   -4.3188   -1.8366   -1.0743 H   0  0  0  0  0  0  0  0  0  0  0  0
   -2.3198   -0.7322   -2.9363 H   0  0  0  0  0  0  0  0  0  0  0  0
   -0.2248   -0.1362   -2.0207 H   0  0  0  0  0  0  0  0  0  0  0  0
   -2.4172    1.7267   -1.6355 H   0  0  0  0  0  0  0  0  0  0  0  0
   -0.9616    1.8707   -2.6158 H   0  0  0  0  0  0  0  0  0  0  0  0
   -0.3263    3.5085   -1.2247 H   0  0  0  0  0  0  0  0  0  0  0  0
   -1.1369    5.2775   -0.0069 H   0  0  0  0  0  0  0  0  0  0  0  0
   -2.7315    6.2474    1.5918 H   0  0  0  0  0  0  0  0  0  0  0  0
   -4.2210    4.7923    2.9184 H   0  0  0  0  0  0  0  0  0  0  0  0
   -5.2772    1.8639    2.2698 H   0  0  0  0  0  0  0  0  0  0  0  0
   -4.6570    2.5257    3.8017 H   0  0  0  0  0  0  0  0  0  0  0  0
   -3.8832    1.1121    3.0865 H   0  0  0  0  0  0  0  0  0  0  0  0
   -2.5313    1.3271    1.0376 H   0  0  0  0  0  0  0  0  0  0  0  0
    0.4092    2.6401    1.9144 H   0  0  0  0  0  0  0  0  0  0  0  0
    1.8761    1.8012    1.4674 H   0  0  0  0  0  0  0  0  0  0  0  0
    1.1674    4.5928    0.4645 H   0  0  0  0  0  0  0  0  0  0  0  0
    2.5960    3.6537   -0.0011 H   0  0  0  0  0  0  0  0  0  0  0  0
    2.3693    4.1534    1.6805 H   0  0  0  0  0  0  0  0  0  0  0  0
   -0.4638    0.4017    0.9826 H   0  0  0  0  0  0  0  0  0  0  0  0
    2.4945    0.6718   -1.3399 H   0  0  0  0  0  0  0  0  0  0  0  0
    4.3351   -0.9548   -1.3467 H   0  0  0  0  0  0  0  0  0  0  0  0
    4.9956   -3.3185   -0.9589 H   0  0  0  0  0  0  0  0  0  0  0  0
    4.1015   -4.3341    0.1537 H   0  0  0  0  0  0  0  0  0  0  0  0
    5.0259   -3.0201    2.1032 H   0  0  0  0  0  0  0  0  0  0  0  0
    5.9247   -1.9991    0.9847 H   0  0  0  0  0  0  0  0  0  0  0  0
    7.3736   -3.7691    1.9197 H   0  0  0  0  0  0  0  0  0  0  0  0
    7.1961   -3.9972    0.1715 H   0  0  0  0  0  0  0  0  0  0  0  0
    6.2903   -5.0263    1.2988 H   0  0  0  0  0  0  0  0  0  0  0  0
    2.1327   -3.4571    1.3874 H   0  0  0  0  0  0  0  0  0  0  0  0
    0.2912   -1.8341    1.3927 H   0  0  0  0  0  0  0  0  0  0  0  0
  1  2  1  0
  2  3  1  0
  3  4  1  0
  4  5  1  0
  5  6  2  0
  5  7  1  0
  7  8  1  0
  8  9  1  0
  9 10  1  0
 10 11  2  0
 11 12  1  0
 12 13  2  0
 13 14  1  0
 14 15  1  0
 14 16  2  0
  9 17  1  0
 17 18  1  0
 18 19  1  0
 17 20  1  0
 20 21  1  0
 21 22  2  0
 22 23  1  0
 23 24  2  0
 24 25  1  0
 25 26  1  0
 26 27  1  0
 24 28  1  0
 28 29  2  0
 20  7  1  0
 29 21  1  0
 16 10  1  0
  1 30  1  0
  1 31  1  0
  1 32  1  0
  2 33  1  0
  2 34  1  0
  3 35  1  0
  3 36  1  0
  4 37  1  0
  7 38  1  0
  8 39  1  0
  8 40  1  0
  9 41  1  0
 11 42  1  0
 12 43  1  0
 13 44  1  0
 15 45  1  0
 15 46  1  0
 15 47  1  0
 16 48  1  0
 18 49  1  0
 18 50  1  0
 19 51  1  0
 19 52  1  0
 19 53  1  0
 20 54  1  0
 22 55  1  0
 23 56  1  0
 25 57  1  0
 25 58  1  0
 26 59  1  0
 26 60  1  0
 27 61  1  0
 27 62  1  0
 27 63  1  0
 28 64  1  0
 29 65  1  0
M  END
>  <smiles>  (6) 
CCCNC(=O)C1CC(c2cccc(C)c2)N(CC)C1c1ccc(CCC)cc1

>  <mol_id>  (6) 
run14a_mol_3

>  <run_id>  (6) 
run14a

>  <original_index>  (6) 
3

>  <Agent>  (6) 
12.9912

>  <Prior>  (6) 
37.3722

>  <Target>  (6) 
72.1798

>  <Score>  (6) 
0.7303468

>  <SMILES>  (6) 
CCCNC(=O)C1CC(c2cccc(C)c2)N(CC)C1c1ccc(CCC)cc1

>  <SMILES_state>  (6) 
1.0

>  <Input_Scaffold>  (6) 
c1ccc([*])cc1C1N([*])C(c2ccc([*])cc2)C(C(=O)N[*])C1

>  <R-groups>  (6) 
C*|CC*|CCC*|CCC*

>  <Scaffold>  (6) 
c1ccc(C2CCC(c3ccccc3)N2)cc1

>  <DENV_Activity>  (6) 
0.9470427

>  <DENV_Activity (raw)>  (6) 
7.591

>  <Stereo_Centers>  (6) 
1e-05

>  <Stereo_Centers (raw)>  (6) 
3.0

>  <QED>  (6) 
0.6342391

>  <QED (raw)>  (6) 
0.6342

>  <SA>  (6) 
0.3881982

>  <SA (raw)>  (6) 
3.3611

>  <MW>  (6) 
0.9997275

>  <MW (raw)>  (6) 
392.587

>  <Heavy_Atoms>  (6) 
0.9434421

>  <Heavy_Atoms (raw)>  (6) 
29.0

>  <LogP>  (6) 
0.059888

>  <LogP (raw)>  (6) 
5.5979

>  <TPSA>  (6) 
0.7105401

>  <TPSA (raw)>  (6) 
32.34

>  <HBA>  (6) 
0.9968477

>  <HBA (raw)>  (6) 
2.0

>  <HBD>  (6) 
0.9467598

>  <HBD (raw)>  (6) 
1.0

>  <Rotatable_Bonds>  (6) 
0.0112369

>  <Rotatable_Bonds (raw)>  (6) 
8.0

>  <Ring_Count>  (6) 
0.8720069

>  <Ring_Count (raw)>  (6) 
3.0

>  <Aromatic_Rings>  (6) 
0.5

>  <Aromatic_Rings (raw)>  (6) 
2.0

>  <Stability_Alerts>  (6) 
1.0

>  <Stability_Alerts (raw)>  (6) 
1.0

>  <matchting_patterns (Stability_Alerts)>  (6) 
[]

>  <step>  (6) 
1.0

$$$$
run14a_mol_3
     RDKit          3D

 65 67  0  0  0  0  0  0  0  0999 V2000
    2.8023    5.5228    1.6156 C   0  0  0  0  0  0  0  0  0  0  0  0
    3.9048    4.7040    0.9596 C   0  0  0  0  0  0  0  0  0  0  0  0
    3.3783    3.7923   -0.1440 C   0  0  0  0  0  0  0  0  0  0  0  0
    2.5240    2.7430    0.3748 N   0  0  0  0  0  0  0  0  0  0  0  0
    1.6930    2.0274   -0.4689 C   0  0  0  0  0  0  0  0  0  0  0  0
    1.5388    2.3233   -1.6492 O   0  0  0  0  0  0  0  0  0  0  0  0
    0.9486    0.8974    0.2268 C   0  0  0  0  0  0  0  0  0  0  0  0
    1.8825   -0.1177    0.8789 C   0  0  0  0  0  0  0  0  0  0  0  0
    1.1069   -1.4321    0.8116 C   0  0  0  0  0  0  0  0  0  0  0  0
    2.0390   -2.6125    1.0023 C   0  0  0  0  0  0  0  0  0  0  0  0
    2.0489   -3.3029    2.2230 C   0  0  0  0  0  0  0  0  0  0  0  0
    2.9195   -4.3743    2.4264 C   0  0  0  0  0  0  0  0  0  0  0  0
    3.7912   -4.7713    1.4131 C   0  0  0  0  0  0  0  0  0  0  0  0
    3.7936   -4.1071    0.1827 C   0  0  0  0  0  0  0  0  0  0  0  0
    4.7497   -4.5105   -0.9001 C   0  0  0  0  0  0  0  0  0  0  0  0
    2.9271   -3.0223   -0.0077 C   0  0  0  0  0  0  0  0  0  0  0  0
    0.4746   -1.3429   -0.5035 N   0  0  0  0  0  0  0  0  0  0  0  0
   -0.4696   -2.4012   -0.8392 C   0  0  0  0  0  0  0  0  0  0  0  0
   -0.7718   -2.4556   -2.3329 C   0  0  0  0  0  0  0  0  0  0  0  0
    0.0820    0.0652   -0.7444 C   0  0  0  0  0  0  0  0  0  0  0  0
   -1.3906    0.4312   -0.5720 C   0  0  0  0  0  0  0  0  0  0  0  0
   -2.0445    1.1174   -1.6081 C   0  0  0  0  0  0  0  0  0  0  0  0
   -3.3837    1.4976   -1.4887 C   0  0  0  0  0  0  0  0  0  0  0  0
   -4.1008    1.2131   -0.3225 C   0  0  0  0  0  0  0  0  0  0  0  0
   -5.5517    1.6049   -0.2007 C   0  0  0  0  0  0  0  0  0  0  0  0
   -6.4792    0.5010   -0.7099 C   0  0  0  0  0  0  0  0  0  0  0  0
   -7.9404    0.9019   -0.5844 C   0  0  0  0  0  0  0  0  0  0  0  0
   -3.4562    0.5370    0.7185 C   0  0  0  0  0  0  0  0  0  0  0  0
   -2.1158    0.1583    0.5981 C   0  0  0  0  0  0  0  0  0  0  0  0
    3.2278    6.1913    2.3707 H   0  0  0  0  0  0  0  0  0  0  0  0
    2.2775    6.1366    0.8766 H   0  0  0  0  0  0  0  0  0  0  0  0
    2.0690    4.8793    2.1117 H   0  0  0  0  0  0  0  0  0  0  0  0
    4.6447    5.3896    0.5305 H   0  0  0  0  0  0  0  0  0  0  0  0
    4.4185    4.1112    1.7256 H   0  0  0  0  0  0  0  0  0  0  0  0
    2.8304    4.3701   -0.8968 H   0  0  0  0  0  0  0  0  0  0  0  0
    4.2163    3.3002   -0.6503 H   0  0  0  0  0  0  0  0  0  0  0  0
    2.7771    2.3262    1.2606 H   0  0  0  0  0  0  0  0  0  0  0  0
    0.3380    1.3595    1.0146 H   0  0  0  0  0  0  0  0  0  0  0  0
    2.1159    0.1548    1.9149 H   0  0  0  0  0  0  0  0  0  0  0  0
    2.8360   -0.1692    0.3362 H   0  0  0  0  0  0  0  0  0  0  0  0
    0.3363   -1.4437    1.5927 H   0  0  0  0  0  0  0  0  0  0  0  0
    1.3783   -3.0099    3.0273 H   0  0  0  0  0  0  0  0  0  0  0  0
    2.9199   -4.9004    3.3775 H   0  0  0  0  0  0  0  0  0  0  0  0
    4.4674   -5.6048    1.5885 H   0  0  0  0  0  0  0  0  0  0  0  0
    4.9834   -5.5786   -0.8380 H   0  0  0  0  0  0  0  0  0  0  0  0
    4.3167   -4.3305   -1.8897 H   0  0  0  0  0  0  0  0  0  0  0  0
    5.6790   -3.9396   -0.8103 H   0  0  0  0  0  0  0  0  0  0  0  0
    2.9333   -2.4904   -0.9586 H   0  0  0  0  0  0  0  0  0  0  0  0
   -1.3997   -2.3275   -0.2672 H   0  0  0  0  0  0  0  0  0  0  0  0
   -0.0406   -3.3761   -0.5785 H   0  0  0  0  0  0  0  0  0  0  0  0
   -1.4093   -3.3186   -2.5523 H   0  0  0  0  0  0  0  0  0  0  0  0
    0.1493   -2.5655   -2.9153 H   0  0  0  0  0  0  0  0  0  0  0  0
   -1.2949   -1.5628   -2.6846 H   0  0  0  0  0  0  0  0  0  0  0  0
    0.3590    0.2624   -1.7866 H   0  0  0  0  0  0  0  0  0  0  0  0
   -1.5084    1.3652   -2.5233 H   0  0  0  0  0  0  0  0  0  0  0  0
   -3.8608    2.0204   -2.3146 H   0  0  0  0  0  0  0  0  0  0  0  0
   -5.7792    1.8370    0.8475 H   0  0  0  0  0  0  0  0  0  0  0  0
   -5.7263    2.5335   -0.7590 H   0  0  0  0  0  0  0  0  0  0  0  0
   -6.2576    0.2759   -1.7603 H   0  0  0  0  0  0  0  0  0  0  0  0
   -6.3110   -0.4242   -0.1454 H   0  0  0  0  0  0  0  0  0  0  0  0
   -8.5867    0.0995   -0.9536 H   0  0  0  0  0  0  0  0  0  0  0  0
   -8.2050    1.0980    0.4596 H   0  0  0  0  0  0  0  0  0  0  0  0
   -8.1512    1.8036   -1.1682 H   0  0  0  0  0  0  0  0  0  0  0  0
   -3.9948    0.2995    1.6330 H   0  0  0  0  0  0  0  0  0  0  0  0
   -1.6488   -0.3598    1.4300 H   0  0  0  0  0  0  0  0  0  0  0  0
  1  2  1  0
  2  3  1  0
  3  4  1  0
  4  5  1  0
  5  6  2  0
  5  7  1  0
  7  8  1  0
  8  9  1  0
  9 10  1  0
 10 11  2  0
 11 12  1  0
 12 13  2  0
 13 14  1  0
 14 15  1  0
 14 16  2  0
  9 17  1  0
 17 18  1  0
 18 19  1  0
 17 20  1  0
 20 21  1  0
 21 22  2  0
 22 23  1  0
 23 24  2  0
 24 25  1  0
 25 26  1  0
 26 27  1  0
 24 28  1  0
 28 29  2  0
 20  7  1  0
 29 21  1  0
 16 10  1  0
  1 30  1  0
  1 31  1  0
  1 32  1  0
  2 33  1  0
  2 34  1  0
  3 35  1  0
  3 36  1  0
  4 37  1  0
  7 38  1  0
  8 39  1  0
  8 40  1  0
  9 41  1  0
 11 42  1  0
 12 43  1  0
 13 44  1  0
 15 45  1  0
 15 46  1  0
 15 47  1  0
 16 48  1  0
 18 49  1  0
 18 50  1  0
 19 51  1  0
 19 52  1  0
 19 53  1  0
 20 54  1  0
 22 55  1  0
 23 56  1  0
 25 57  1  0
 25 58  1  0
 26 59  1  0
 26 60  1  0
 27 61  1  0
 27 62  1  0
 27 63  1  0
 28 64  1  0
 29 65  1  0
M  END
>  <smiles>  (7) 
CCCNC(=O)C1CC(c2cccc(C)c2)N(CC)C1c1ccc(CCC)cc1

>  <mol_id>  (7) 
run14a_mol_3

>  <run_id>  (7) 
run14a

>  <original_index>  (7) 
3

>  <Agent>  (7) 
12.9912

>  <Prior>  (7) 
37.3722

>  <Target>  (7) 
72.1798

>  <Score>  (7) 
0.7303468

>  <SMILES>  (7) 
CCCNC(=O)C1CC(c2cccc(C)c2)N(CC)C1c1ccc(CCC)cc1

>  <SMILES_state>  (7) 
1.0

>  <Input_Scaffold>  (7) 
c1ccc([*])cc1C1N([*])C(c2ccc([*])cc2)C(C(=O)N[*])C1

>  <R-groups>  (7) 
C*|CC*|CCC*|CCC*

>  <Scaffold>  (7) 
c1ccc(C2CCC(c3ccccc3)N2)cc1

>  <DENV_Activity>  (7) 
0.9470427

>  <DENV_Activity (raw)>  (7) 
7.591

>  <Stereo_Centers>  (7) 
1e-05

>  <Stereo_Centers (raw)>  (7) 
3.0

>  <QED>  (7) 
0.6342391

>  <QED (raw)>  (7) 
0.6342

>  <SA>  (7) 
0.3881982

>  <SA (raw)>  (7) 
3.3611

>  <MW>  (7) 
0.9997275

>  <MW (raw)>  (7) 
392.587

>  <Heavy_Atoms>  (7) 
0.9434421

>  <Heavy_Atoms (raw)>  (7) 
29.0

>  <LogP>  (7) 
0.059888

>  <LogP (raw)>  (7) 
5.5979

>  <TPSA>  (7) 
0.7105401

>  <TPSA (raw)>  (7) 
32.34

>  <HBA>  (7) 
0.9968477

>  <HBA (raw)>  (7) 
2.0

>  <HBD>  (7) 
0.9467598

>  <HBD (raw)>  (7) 
1.0

>  <Rotatable_Bonds>  (7) 
0.0112369

>  <Rotatable_Bonds (raw)>  (7) 
8.0

>  <Ring_Count>  (7) 
0.8720069

>  <Ring_Count (raw)>  (7) 
3.0

>  <Aromatic_Rings>  (7) 
0.5

>  <Aromatic_Rings (raw)>  (7) 
2.0

>  <Stability_Alerts>  (7) 
1.0

>  <Stability_Alerts (raw)>  (7) 
1.0

>  <matchting_patterns (Stability_Alerts)>  (7) 
[]

>  <step>  (7) 
1.0

$$$$
run14a_mol_3
     RDKit          3D

 65 67  0  0  0  0  0  0  0  0999 V2000
   -1.6524    6.5698    2.5928 C   0  0  0  0  0  0  0  0  0  0  0  0
   -1.7577    5.3562    1.6846 C   0  0  0  0  0  0  0  0  0  0  0  0
   -0.7565    4.2762    2.0759 C   0  0  0  0  0  0  0  0  0  0  0  0
   -0.8612    3.1233    1.2043 N   0  0  0  0  0  0  0  0  0  0  0  0
   -0.2851    1.9168    1.5615 C   0  0  0  0  0  0  0  0  0  0  0  0
    0.2647    1.7411    2.6434 O   0  0  0  0  0  0  0  0  0  0  0  0
   -0.3571    0.8665    0.4641 C   0  0  0  0  0  0  0  0  0  0  0  0
   -1.7844    0.5889    0.0027 C   0  0  0  0  0  0  0  0  0  0  0  0
   -1.7465   -0.8698   -0.4496 C   0  0  0  0  0  0  0  0  0  0  0  0
   -3.1468   -1.4455   -0.5274 C   0  0  0  0  0  0  0  0  0  0  0  0
   -3.8827   -1.7513    0.6280 C   0  0  0  0  0  0  0  0  0  0  0  0
   -5.1791   -2.2562    0.5342 C   0  0  0  0  0  0  0  0  0  0  0  0
   -5.7597   -2.4634   -0.7160 C   0  0  0  0  0  0  0  0  0  0  0  0
   -5.0446   -2.1774   -1.8837 C   0  0  0  0  0  0  0  0  0  0  0  0
   -5.6805   -2.3691   -3.2288 C   0  0  0  0  0  0  0  0  0  0  0  0
   -3.7468   -1.6562   -1.7801 C   0  0  0  0  0  0  0  0  0  0  0  0
   -0.8787   -1.4769    0.5588 N   0  0  0  0  0  0  0  0  0  0  0  0
   -0.5173   -2.8725    0.3474 C   0  0  0  0  0  0  0  0  0  0  0  0
    0.0423   -3.5241    1.6074 C   0  0  0  0  0  0  0  0  0  0  0  0
    0.1841   -0.5084    0.9136 C   0  0  0  0  0  0  0  0  0  0  0  0
    1.5759   -0.7330    0.3266 C   0  0  0  0  0  0  0  0  0  0  0  0
    2.6845   -0.7234    1.1884 C   0  0  0  0  0  0  0  0  0  0  0  0
    3.9813   -0.8950    0.6972 C   0  0  0  0  0  0  0  0  0  0  0  0
    4.2034   -1.0767   -0.6713 C   0  0  0  0  0  0  0  0  0  0  0  0
    5.6038   -1.2460   -1.2040 C   0  0  0  0  0  0  0  0  0  0  0  0
    6.2401    0.0986   -1.5580 C   0  0  0  0  0  0  0  0  0  0  0  0
    7.6516   -0.0793   -2.0945 C   0  0  0  0  0  0  0  0  0  0  0  0
    3.1075   -1.0670   -1.5404 C   0  0  0  0  0  0  0  0  0  0  0  0
    1.8107   -0.8938   -1.0476 C   0  0  0  0  0  0  0  0  0  0  0  0
   -0.6532    7.0138    2.5398 H   0  0  0  0  0  0  0  0  0  0  0  0
   -2.3790    7.3316    2.2936 H   0  0  0  0  0  0  0  0  0  0  0  0
   -1.8536    6.2990    3.6342 H   0  0  0  0  0  0  0  0  0  0  0  0
   -2.7765    4.9533    1.7314 H   0  0  0  0  0  0  0  0  0  0  0  0
   -1.5881    5.6642    0.6458 H   0  0  0  0  0  0  0  0  0  0  0  0
    0.2702    4.6517    1.9995 H   0  0  0  0  0  0  0  0  0  0  0  0
   -0.9196    3.9552    3.1110 H   0  0  0  0  0  0  0  0  0  0  0  0
   -1.0238    3.2903    0.2198 H   0  0  0  0  0  0  0  0  0  0  0  0
    0.2104    1.2613   -0.3898 H   0  0  0  0  0  0  0  0  0  0  0  0
   -2.4946    0.7510    0.8246 H   0  0  0  0  0  0  0  0  0  0  0  0
   -2.0815    1.2552   -0.8156 H   0  0  0  0  0  0  0  0  0  0  0  0
   -1.2681   -0.9345   -1.4350 H   0  0  0  0  0  0  0  0  0  0  0  0
   -3.4406   -1.5979    1.6109 H   0  0  0  0  0  0  0  0  0  0  0  0
   -5.7363   -2.4870    1.4382 H   0  0  0  0  0  0  0  0  0  0  0  0
   -6.7737   -2.8521   -0.7729 H   0  0  0  0  0  0  0  0  0  0  0  0
   -6.4071   -3.1880   -3.2050 H   0  0  0  0  0  0  0  0  0  0  0  0
   -6.1917   -1.4513   -3.5350 H   0  0  0  0  0  0  0  0  0  0  0  0
   -4.9287   -2.6248   -3.9829 H   0  0  0  0  0  0  0  0  0  0  0  0
   -3.1973   -1.4150   -2.6880 H   0  0  0  0  0  0  0  0  0  0  0  0
   -1.4098   -3.4487    0.0758 H   0  0  0  0  0  0  0  0  0  0  0  0
    0.1798   -3.0010   -0.4864 H   0  0  0  0  0  0  0  0  0  0  0  0
   -0.6617   -3.4328    2.4416 H   0  0  0  0  0  0  0  0  0  0  0  0
    0.9956   -3.0865    1.9143 H   0  0  0  0  0  0  0  0  0  0  0  0
    0.2118   -4.5915    1.4304 H   0  0  0  0  0  0  0  0  0  0  0  0
    0.2645   -0.5618    2.0058 H   0  0  0  0  0  0  0  0  0  0  0  0
    2.5439   -0.5747    2.2583 H   0  0  0  0  0  0  0  0  0  0  0  0
    4.8168   -0.8815    1.3935 H   0  0  0  0  0  0  0  0  0  0  0  0
    5.5809   -1.8981   -2.0865 H   0  0  0  0  0  0  0  0  0  0  0  0
    6.2159   -1.7700   -0.4588 H   0  0  0  0  0  0  0  0  0  0  0  0
    6.2712    0.7465   -0.6736 H   0  0  0  0  0  0  0  0  0  0  0  0
    5.6331    0.6177   -2.3098 H   0  0  0  0  0  0  0  0  0  0  0  0
    8.0886    0.8933   -2.3414 H   0  0  0  0  0  0  0  0  0  0  0  0
    8.2952   -0.5623   -1.3523 H   0  0  0  0  0  0  0  0  0  0  0  0
    7.6521   -0.6922   -3.0015 H   0  0  0  0  0  0  0  0  0  0  0  0
    3.2564   -1.1936   -2.6103 H   0  0  0  0  0  0  0  0  0  0  0  0
    0.9857   -0.8912   -1.7534 H   0  0  0  0  0  0  0  0  0  0  0  0
  1  2  1  0
  2  3  1  0
  3  4  1  0
  4  5  1  0
  5  6  2  0
  5  7  1  0
  7  8  1  0
  8  9  1  0
  9 10  1  0
 10 11  2  0
 11 12  1  0
 12 13  2  0
 13 14  1  0
 14 15  1  0
 14 16  2  0
  9 17  1  0
 17 18  1  0
 18 19  1  0
 17 20  1  0
 20 21  1  0
 21 22  2  0
 22 23  1  0
 23 24  2  0
 24 25  1  0
 25 26  1  0
 26 27  1  0
 24 28  1  0
 28 29  2  0
 20  7  1  0
 29 21  1  0
 16 10  1  0
  1 30  1  0
  1 31  1  0
  1 32  1  0
  2 33  1  0
  2 34  1  0
  3 35  1  0
  3 36  1  0
  4 37  1  0
  7 38  1  0
  8 39  1  0
  8 40  1  0
  9 41  1  0
 11 42  1  0
 12 43  1  0
 13 44  1  0
 15 45  1  0
 15 46  1  0
 15 47  1  0
 16 48  1  0
 18 49  1  0
 18 50  1  0
 19 51  1  0
 19 52  1  0
 19 53  1  0
 20 54  1  0
 22 55  1  0
 23 56  1  0
 25 57  1  0
 25 58  1  0
 26 59  1  0
 26 60  1  0
 27 61  1  0
 27 62  1  0
 27 63  1  0
 28 64  1  0
 29 65  1  0
M  END
>  <smiles>  (8) 
CCCNC(=O)C1CC(c2cccc(C)c2)N(CC)C1c1ccc(CCC)cc1

>  <mol_id>  (8) 
run14a_mol_3

>  <run_id>  (8) 
run14a

>  <original_index>  (8) 
3

>  <Agent>  (8) 
12.9912

>  <Prior>  (8) 
37.3722

>  <Target>  (8) 
72.1798

>  <Score>  (8) 
0.7303468

>  <SMILES>  (8) 
CCCNC(=O)C1CC(c2cccc(C)c2)N(CC)C1c1ccc(CCC)cc1

>  <SMILES_state>  (8) 
1.0

>  <Input_Scaffold>  (8) 
c1ccc([*])cc1C1N([*])C(c2ccc([*])cc2)C(C(=O)N[*])C1

>  <R-groups>  (8) 
C*|CC*|CCC*|CCC*

>  <Scaffold>  (8) 
c1ccc(C2CCC(c3ccccc3)N2)cc1

>  <DENV_Activity>  (8) 
0.9470427

>  <DENV_Activity (raw)>  (8) 
7.591

>  <Stereo_Centers>  (8) 
1e-05

>  <Stereo_Centers (raw)>  (8) 
3.0

>  <QED>  (8) 
0.6342391

>  <QED (raw)>  (8) 
0.6342

>  <SA>  (8) 
0.3881982

>  <SA (raw)>  (8) 
3.3611

>  <MW>  (8) 
0.9997275

>  <MW (raw)>  (8) 
392.587

>  <Heavy_Atoms>  (8) 
0.9434421

>  <Heavy_Atoms (raw)>  (8) 
29.0

>  <LogP>  (8) 
0.059888

>  <LogP (raw)>  (8) 
5.5979

>  <TPSA>  (8) 
0.7105401

>  <TPSA (raw)>  (8) 
32.34

>  <HBA>  (8) 
0.9968477

>  <HBA (raw)>  (8) 
2.0

>  <HBD>  (8) 
0.9467598

>  <HBD (raw)>  (8) 
1.0

>  <Rotatable_Bonds>  (8) 
0.0112369

>  <Rotatable_Bonds (raw)>  (8) 
8.0

>  <Ring_Count>  (8) 
0.8720069

>  <Ring_Count (raw)>  (8) 
3.0

>  <Aromatic_Rings>  (8) 
0.5

>  <Aromatic_Rings (raw)>  (8) 
2.0

>  <Stability_Alerts>  (8) 
1.0

>  <Stability_Alerts (raw)>  (8) 
1.0

>  <matchting_patterns (Stability_Alerts)>  (8) 
[]

>  <step>  (8) 
1.0

$$$$
run14a_mol_3
     RDKit          3D

 65 67  0  0  0  0  0  0  0  0999 V2000
   -1.0615    5.9331   -0.7759 C   0  0  0  0  0  0  0  0  0  0  0  0
   -2.0352    4.9879   -1.4654 C   0  0  0  0  0  0  0  0  0  0  0  0
   -2.6388    3.9572   -0.5162 C   0  0  0  0  0  0  0  0  0  0  0  0
   -1.6663    2.9799   -0.0694 N   0  0  0  0  0  0  0  0  0  0  0  0
   -2.0813    1.7945    0.5164 C   0  0  0  0  0  0  0  0  0  0  0  0
   -3.2625    1.4786    0.6059 O   0  0  0  0  0  0  0  0  0  0  0  0
   -0.9260    0.9535    1.0477 C   0  0  0  0  0  0  0  0  0  0  0  0
   -1.3731   -0.2616    1.8598 C   0  0  0  0  0  0  0  0  0  0  0  0
   -1.0139   -1.5027    1.0248 C   0  0  0  0  0  0  0  0  0  0  0  0
   -2.1917   -2.4589    0.9814 C   0  0  0  0  0  0  0  0  0  0  0  0
   -2.1496   -3.6605    1.7039 C   0  0  0  0  0  0  0  0  0  0  0  0
   -3.2309   -4.5422    1.6793 C   0  0  0  0  0  0  0  0  0  0  0  0
   -4.3732   -4.2300    0.9429 C   0  0  0  0  0  0  0  0  0  0  0  0
   -4.4499   -3.0269    0.2344 C   0  0  0  0  0  0  0  0  0  0  0  0
   -5.6645   -2.6944   -0.5798 C   0  0  0  0  0  0  0  0  0  0  0  0
   -3.3533   -2.1548    0.2506 C   0  0  0  0  0  0  0  0  0  0  0  0
   -0.6005   -0.9923   -0.2885 N   0  0  0  0  0  0  0  0  0  0  0  0
    0.2703   -1.8595   -1.0835 C   0  0  0  0  0  0  0  0  0  0  0  0
   -0.4076   -3.1183   -1.6107 C   0  0  0  0  0  0  0  0  0  0  0  0
   -0.1035    0.3860   -0.1161 C   0  0  0  0  0  0  0  0  0  0  0  0
    1.3999    0.5478    0.1080 C   0  0  0  0  0  0  0  0  0  0  0  0
    2.0482    0.1407    1.2834 C   0  0  0  0  0  0  0  0  0  0  0  0
    3.4270    0.3128    1.4407 C   0  0  0  0  0  0  0  0  0  0  0  0
    4.1941    0.8937    0.4257 C   0  0  0  0  0  0  0  0  0  0  0  0
    5.6837    1.0667    0.5909 C   0  0  0  0  0  0  0  0  0  0  0  0
    6.5146    0.0868   -0.2430 C   0  0  0  0  0  0  0  0  0  0  0  0
    6.3782   -1.3580    0.2173 C   0  0  0  0  0  0  0  0  0  0  0  0
    3.5570    1.2992   -0.7511 C   0  0  0  0  0  0  0  0  0  0  0  0
    2.1792    1.1276   -0.9075 C   0  0  0  0  0  0  0  0  0  0  0  0
   -0.7079    6.6898   -1.4836 H   0  0  0  0  0  0  0  0  0  0  0  0
   -1.5428    6.4506    0.0600 H   0  0  0  0  0  0  0  0  0  0  0  0
   -0.1860    5.4002   -0.3933 H   0  0  0  0  0  0  0  0  0  0  0  0
   -1.5250    4.4835   -2.2944 H   0  0  0  0  0  0  0  0  0  0  0  0
   -2.8471    5.5837   -1.8987 H   0  0  0  0  0  0  0  0  0  0  0  0
   -3.0625    4.4390    0.3721 H   0  0  0  0  0  0  0  0  0  0  0  0
   -3.4526    3.4268   -1.0239 H   0  0  0  0  0  0  0  0  0  0  0  0
   -0.7348    3.3056    0.1561 H   0  0  0  0  0  0  0  0  0  0  0  0
   -0.3432    1.6194    1.6985 H   0  0  0  0  0  0  0  0  0  0  0  0
   -0.8107   -0.2946    2.8020 H   0  0  0  0  0  0  0  0  0  0  0  0
   -2.4299   -0.2115    2.1434 H   0  0  0  0  0  0  0  0  0  0  0  0
   -0.1616   -2.0013    1.5056 H   0  0  0  0  0  0  0  0  0  0  0  0
   -1.2690   -3.9225    2.2851 H   0  0  0  0  0  0  0  0  0  0  0  0
   -3.1830   -5.4753    2.2340 H   0  0  0  0  0  0  0  0  0  0  0  0
   -5.2057   -4.9291    0.9284 H   0  0  0  0  0  0  0  0  0  0  0  0
   -5.5356   -3.0508   -1.6064 H   0  0  0  0  0  0  0  0  0  0  0  0
   -6.5603   -3.1589   -0.1546 H   0  0  0  0  0  0  0  0  0  0  0  0
   -5.8376   -1.6132   -0.5982 H   0  0  0  0  0  0  0  0  0  0  0  0
   -3.4009   -1.2206   -0.3089 H   0  0  0  0  0  0  0  0  0  0  0  0
    1.1687   -2.1486   -0.5251 H   0  0  0  0  0  0  0  0  0  0  0  0
    0.6068   -1.3042   -1.9684 H   0  0  0  0  0  0  0  0  0  0  0  0
    0.2452   -3.6123   -2.3386 H   0  0  0  0  0  0  0  0  0  0  0  0
   -1.3487   -2.8824   -2.1179 H   0  0  0  0  0  0  0  0  0  0  0  0
   -0.6028   -3.8404   -0.8142 H   0  0  0  0  0  0  0  0  0  0  0  0
   -0.3503    0.9177   -1.0442 H   0  0  0  0  0  0  0  0  0  0  0  0
    1.4957   -0.3232    2.0947 H   0  0  0  0  0  0  0  0  0  0  0  0
    3.8991   -0.0195    2.3629 H   0  0  0  0  0  0  0  0  0  0  0  0
    5.9431    2.0934    0.3015 H   0  0  0  0  0  0  0  0  0  0  0  0
    5.9590    0.9788    1.6495 H   0  0  0  0  0  0  0  0  0  0  0  0
    6.2445    0.1555   -1.3032 H   0  0  0  0  0  0  0  0  0  0  0  0
    7.5699    0.3753   -0.1659 H   0  0  0  0  0  0  0  0  0  0  0  0
    7.0528   -2.0004   -0.3578 H   0  0  0  0  0  0  0  0  0  0  0  0
    6.6359   -1.4590    1.2763 H   0  0  0  0  0  0  0  0  0  0  0  0
    5.3599   -1.7308    0.0716 H   0  0  0  0  0  0  0  0  0  0  0  0
    4.1312    1.7483   -1.5586 H   0  0  0  0  0  0  0  0  0  0  0  0
    1.7174    1.4451   -1.8409 H   0  0  0  0  0  0  0  0  0  0  0  0
  1  2  1  0
  2  3  1  0
  3  4  1  0
  4  5  1  0
  5  6  2  0
  5  7  1  0
  7  8  1  0
  8  9  1  0
  9 10  1  0
 10 11  2  0
 11 12  1  0
 12 13  2  0
 13 14  1  0
 14 15  1  0
 14 16  2  0
  9 17  1  0
 17 18  1  0
 18 19  1  0
 17 20  1  0
 20 21  1  0
 21 22  2  0
 22 23  1  0
 23 24  2  0
 24 25  1  0
 25 26  1  0
 26 27  1  0
 24 28  1  0
 28 29  2  0
 20  7  1  0
 29 21  1  0
 16 10  1  0
  1 30  1  0
  1 31  1  0
  1 32  1  0
  2 33  1  0
  2 34  1  0
  3 35  1  0
  3 36  1  0
  4 37  1  0
  7 38  1  0
  8 39  1  0
  8 40  1  0
  9 41  1  0
 11 42  1  0
 12 43  1  0
 13 44  1  0
 15 45  1  0
 15 46  1  0
 15 47  1  0
 16 48  1  0
 18 49  1  0
 18 50  1  0
 19 51  1  0
 19 52  1  0
 19 53  1  0
 20 54  1  0
 22 55  1  0
 23 56  1  0
 25 57  1  0
 25 58  1  0
 26 59  1  0
 26 60  1  0
 27 61  1  0
 27 62  1  0
 27 63  1  0
 28 64  1  0
 29 65  1  0
M  END
>  <smiles>  (9) 
CCCNC(=O)C1CC(c2cccc(C)c2)N(CC)C1c1ccc(CCC)cc1

>  <mol_id>  (9) 
run14a_mol_3

>  <run_id>  (9) 
run14a

>  <original_index>  (9) 
3

>  <Agent>  (9) 
12.9912

>  <Prior>  (9) 
37.3722

>  <Target>  (9) 
72.1798

>  <Score>  (9) 
0.7303468

>  <SMILES>  (9) 
CCCNC(=O)C1CC(c2cccc(C)c2)N(CC)C1c1ccc(CCC)cc1

>  <SMILES_state>  (9) 
1.0

>  <Input_Scaffold>  (9) 
c1ccc([*])cc1C1N([*])C(c2ccc([*])cc2)C(C(=O)N[*])C1

>  <R-groups>  (9) 
C*|CC*|CCC*|CCC*

>  <Scaffold>  (9) 
c1ccc(C2CCC(c3ccccc3)N2)cc1

>  <DENV_Activity>  (9) 
0.9470427

>  <DENV_Activity (raw)>  (9) 
7.591

>  <Stereo_Centers>  (9) 
1e-05

>  <Stereo_Centers (raw)>  (9) 
3.0

>  <QED>  (9) 
0.6342391

>  <QED (raw)>  (9) 
0.6342

>  <SA>  (9) 
0.3881982

>  <SA (raw)>  (9) 
3.3611

>  <MW>  (9) 
0.9997275

>  <MW (raw)>  (9) 
392.587

>  <Heavy_Atoms>  (9) 
0.9434421

>  <Heavy_Atoms (raw)>  (9) 
29.0

>  <LogP>  (9) 
0.059888

>  <LogP (raw)>  (9) 
5.5979

>  <TPSA>  (9) 
0.7105401

>  <TPSA (raw)>  (9) 
32.34

>  <HBA>  (9) 
0.9968477

>  <HBA (raw)>  (9) 
2.0

>  <HBD>  (9) 
0.9467598

>  <HBD (raw)>  (9) 
1.0

>  <Rotatable_Bonds>  (9) 
0.0112369

>  <Rotatable_Bonds (raw)>  (9) 
8.0

>  <Ring_Count>  (9) 
0.8720069

>  <Ring_Count (raw)>  (9) 
3.0

>  <Aromatic_Rings>  (9) 
0.5

>  <Aromatic_Rings (raw)>  (9) 
2.0

>  <Stability_Alerts>  (9) 
1.0

>  <Stability_Alerts (raw)>  (9) 
1.0

>  <matchting_patterns (Stability_Alerts)>  (9) 
[]

>  <step>  (9) 
1.0

$$$$
