run14a_mol_9
     RDKit          3D

 60 63  0  0  0  0  0  0  0  0999 V2000
   -4.7412   -2.8152   -2.3884 C   0  0  0  0  0  0  0  0  0  0  0  0
   -3.7531   -1.7064   -2.1791 C   0  0  0  0  0  0  0  0  0  0  0  0
   -4.0507   -0.4042   -2.5927 C   0  0  0  0  0  0  0  0  0  0  0  0
   -3.1509    0.6332   -2.3545 C   0  0  0  0  0  0  0  0  0  0  0  0
   -1.9502    0.3793   -1.6918 C   0  0  0  0  0  0  0  0  0  0  0  0
   -1.6327   -0.9160   -1.2539 C   0  0  0  0  0  0  0  0  0  0  0  0
   -0.3313   -1.2175   -0.5310 C   0  0  0  0  0  0  0  0  0  0  0  0
    0.8660   -1.0861   -1.4895 C   0  0  0  0  0  0  0  0  0  0  0  0
    1.6775    0.0736   -0.9329 C   0  0  0  0  0  0  0  0  0  0  0  0
    3.1598   -0.0850   -1.1728 C   0  0  0  0  0  0  0  0  0  0  0  0
    3.7914   -1.0616   -0.7936 O   0  0  0  0  0  0  0  0  0  0  0  0
    3.7680    1.0038   -1.8116 N   0  0  0  0  0  0  0  0  0  0  0  0
    5.3429    1.0542   -2.3208 S   0  0  0  0  0  0  0  0  0  0  0  0
    6.2596    1.0070   -0.7937 C   0  0  0  0  0  0  0  0  0  0  0  0
    5.6270   -0.1289   -3.0987 O   0  0  0  0  0  0  0  0  0  0  0  0
    5.5075    2.3752   -2.8915 O   0  0  0  0  0  0  0  0  0  0  0  0
    1.3786    0.0083    0.5613 C   0  0  0  0  0  0  0  0  0  0  0  0
    1.7678    1.3051    1.2480 C   0  0  0  0  0  0  0  0  0  0  0  0
    0.9859    2.4657    1.1357 C   0  0  0  0  0  0  0  0  0  0  0  0
    1.3896    3.6570    1.7399 C   0  0  0  0  0  0  0  0  0  0  0  0
    2.5809    3.7053    2.4602 C   0  0  0  0  0  0  0  0  0  0  0  0
    3.3684    2.5625    2.5803 C   0  0  0  0  0  0  0  0  0  0  0  0
    2.9660    1.3696    1.9777 C   0  0  0  0  0  0  0  0  0  0  0  0
   -0.0701   -0.2739    0.5830 N   0  0  0  0  0  0  0  0  0  0  0  0
   -0.4926   -0.7998    1.8935 C   0  0  0  0  0  0  0  0  0  0  0  0
   -1.9902   -0.9525    2.0429 C   0  0  0  0  0  0  0  0  0  0  0  0
   -2.5603   -2.2099    2.2901 C   0  0  0  0  0  0  0  0  0  0  0  0
   -3.9431   -2.3463    2.4257 C   0  0  0  0  0  0  0  0  0  0  0  0
   -4.7690   -1.2289    2.3189 C   0  0  0  0  0  0  0  0  0  0  0  0
   -4.2140    0.0266    2.0800 C   0  0  0  0  0  0  0  0  0  0  0  0
   -2.8320    0.1652    1.9470 C   0  0  0  0  0  0  0  0  0  0  0  0
   -2.5484   -1.9510   -1.5049 C   0  0  0  0  0  0  0  0  0  0  0  0
   -5.3511   -2.6334   -3.2795 H   0  0  0  0  0  0  0  0  0  0  0  0
   -4.2284   -3.7715   -2.5358 H   0  0  0  0  0  0  0  0  0  0  0  0
   -5.4009   -2.8967   -1.5190 H   0  0  0  0  0  0  0  0  0  0  0  0
   -4.9895   -0.1890   -3.0971 H   0  0  0  0  0  0  0  0  0  0  0  0
   -3.3905    1.6431   -2.6756 H   0  0  0  0  0  0  0  0  0  0  0  0
   -1.2693    1.2036   -1.4991 H   0  0  0  0  0  0  0  0  0  0  0  0
   -0.3434   -2.2538   -0.1660 H   0  0  0  0  0  0  0  0  0  0  0  0
    1.4492   -2.0158   -1.4728 H   0  0  0  0  0  0  0  0  0  0  0  0
    0.5892   -0.9038   -2.5343 H   0  0  0  0  0  0  0  0  0  0  0  0
    1.3194    1.0107   -1.3795 H   0  0  0  0  0  0  0  0  0  0  0  0
    3.2501    1.8519   -2.0266 H   0  0  0  0  0  0  0  0  0  0  0  0
    7.3160    1.1445   -1.0354 H   0  0  0  0  0  0  0  0  0  0  0  0
    6.1176    0.0393   -0.3118 H   0  0  0  0  0  0  0  0  0  0  0  0
    5.9194    1.8217   -0.1517 H   0  0  0  0  0  0  0  0  0  0  0  0
    1.9222   -0.8281    1.0255 H   0  0  0  0  0  0  0  0  0  0  0  0
    0.0486    2.4435    0.5827 H   0  0  0  0  0  0  0  0  0  0  0  0
    0.7707    4.5465    1.6525 H   0  0  0  0  0  0  0  0  0  0  0  0
    2.8919    4.6331    2.9340 H   0  0  0  0  0  0  0  0  0  0  0  0
    4.2944    2.5999    3.1487 H   0  0  0  0  0  0  0  0  0  0  0  0
    3.5957    0.4880    2.0852 H   0  0  0  0  0  0  0  0  0  0  0  0
    0.0055   -1.7562    2.1024 H   0  0  0  0  0  0  0  0  0  0  0  0
   -0.1740   -0.1166    2.6919 H   0  0  0  0  0  0  0  0  0  0  0  0
   -1.9320   -3.0931    2.3725 H   0  0  0  0  0  0  0  0  0  0  0  0
   -4.3770   -3.3251    2.6112 H   0  0  0  0  0  0  0  0  0  0  0  0
   -5.8456   -1.3362    2.4178 H   0  0  0  0  0  0  0  0  0  0  0  0
   -4.8566    0.8977    1.9882 H   0  0  0  0  0  0  0  0  0  0  0  0
   -2.4084    1.1467    1.7472 H   0  0  0  0  0  0  0  0  0  0  0  0
   -2.3303   -2.9590   -1.1580 H   0  0  0  0  0  0  0  0  0  0  0  0
  1  2  1  0
  2  3  2  0
  3  4  1  0
  4  5  2  0
  5  6  1  0
  6  7  1  0
  7  8  1  0
  8  9  1  0
  9 10  1  0
 10 11  2  0
 10 12  1  0
 12 13  1  0
 13 14  1  0
 13 15  2  0
 13 16  2  0
  9 17  1  0
 17 18  1  0
 18 19  2  0
 19 20  1  0
 20 21  2  0
 21 22  1  0
 22 23  2  0
 17 24  1  0
 24 25  1  0
 25 26  1  0
 26 27  2  0
 27 28  1  0
 28 29  2  0
 29 30  1  0
 30 31  2  0
  6 32  2  0
 32  2  1  0
 24  7  1  0
 31 26  1  0
 23 18  1  0
  1 33  1  0
  1 34  1  0
  1 35  1  0
  3 36  1  0
  4 37  1  0
  5 38  1  0
  7 39  1  0
  8 40  1  0
  8 41  1  0
  9 42  1  0
 12 43  1  0
 14 44  1  0
 14 45  1  0
 14 46  1  0
 17 47  1  0
 19 48  1  0
 20 49  1  0
 21 50  1  0
 22 51  1  0
 23 52  1  0
 25 53  1  0
 25 54  1  0
 27 55  1  0
 28 56  1  0
 29 57  1  0
 30 58  1  0
 31 59  1  0
 32 60  1  0
M  END
>  <smiles>  (1) 
Cc1cccc(C2CC(C(=O)NS(C)(=O)=O)C(c3ccccc3)N2Cc2ccccc2)c1

>  <mol_id>  (1) 
run14a_mol_9

>  <run_id>  (1) 
run14a

>  <original_index>  (1) 
9

>  <Agent>  (1) 
5.5401

>  <Prior>  (1) 
10.9942

>  <Target>  (1) 
100.2379

>  <Score>  (1) 
0.7415472

>  <SMILES>  (1) 
Cc1cccc(C2CC(C(=O)NS(C)(=O)=O)C(c3ccccc3)N2Cc2ccccc2)c1

>  <SMILES_state>  (1) 
1.0

>  <Input_Scaffold>  (1) 
c1ccc([*])cc1C1N([*])C(c2ccccc2)C(C(=O)N[*])C1

>  <R-groups>  (1) 
C*|c1ccccc1C*|CS(*)(=O)=O

>  <Scaffold>  (1) 
c1ccc(CN2C(c3ccccc3)CCC2c2ccccc2)cc1

>  <DENV_Activity>  (1) 
0.9429331

>  <DENV_Activity (raw)>  (1) 
7.6296

>  <Stereo_Centers>  (1) 
1e-05

>  <Stereo_Centers (raw)>  (1) 
3.0

>  <QED>  (1) 
0.6079462

>  <QED (raw)>  (1) 
0.6079

>  <SA>  (1) 
0.3914754

>  <SA (raw)>  (1) 
3.3578

>  <MW>  (1) 
0.9998361

>  <MW (raw)>  (1) 
448.588

>  <Heavy_Atoms>  (1) 
0.9653086

>  <Heavy_Atoms (raw)>  (1) 
32.0

>  <LogP>  (1) 
0.9466854

>  <LogP (raw)>  (1) 
4.3753

>  <TPSA>  (1) 
0.9999992

>  <TPSA (raw)>  (1) 
66.48

>  <HBA>  (1) 
0.8720069

>  <HBA (raw)>  (1) 
4.0

>  <HBD>  (1) 
0.9467598

>  <HBD (raw)>  (1) 
1.0

>  <Rotatable_Bonds>  (1) 
0.1279931

>  <Rotatable_Bonds (raw)>  (1) 
6.0

>  <Ring_Count>  (1) 
0.1279931

>  <Ring_Count (raw)>  (1) 
4.0

>  <Aromatic_Rings>  (1) 
0.0031523

>  <Aromatic_Rings (raw)>  (1) 
3.0

>  <Stability_Alerts>  (1) 
1.0

>  <Stability_Alerts (raw)>  (1) 
1.0

>  <matchting_patterns (Stability_Alerts)>  (1) 
[]

>  <step>  (1) 
1.0

$$$$
run14a_mol_9
     RDKit          3D

 60 63  0  0  0  0  0  0  0  0999 V2000
   -4.0782    3.9855    2.8028 C   0  0  0  0  0  0  0  0  0  0  0  0
   -2.9788    2.9656    2.7732 C   0  0  0  0  0  0  0  0  0  0  0  0
   -2.5138    2.3920    3.9610 C   0  0  0  0  0  0  0  0  0  0  0  0
   -1.4673    1.4716    3.9362 C   0  0  0  0  0  0  0  0  0  0  0  0
   -0.8718    1.1213    2.7249 C   0  0  0  0  0  0  0  0  0  0  0  0
   -1.3130    1.6880    1.5201 C   0  0  0  0  0  0  0  0  0  0  0  0
   -0.6665    1.3353    0.1968 C   0  0  0  0  0  0  0  0  0  0  0  0
    0.7303    1.9623    0.0513 C   0  0  0  0  0  0  0  0  0  0  0  0
    1.6223    0.8580   -0.5238 C   0  0  0  0  0  0  0  0  0  0  0  0
    2.6485    0.3949    0.5027 C   0  0  0  0  0  0  0  0  0  0  0  0
    2.4307    0.3241    1.7033 O   0  0  0  0  0  0  0  0  0  0  0  0
    3.8891    0.0333   -0.0481 N   0  0  0  0  0  0  0  0  0  0  0  0
    5.2547   -0.3115    0.8194 S   0  0  0  0  0  0  0  0  0  0  0  0
    4.8263   -1.7997    1.6995 C   0  0  0  0  0  0  0  0  0  0  0  0
    6.2472   -0.6608   -0.1773 O   0  0  0  0  0  0  0  0  0  0  0  0
    5.5014    0.7593    1.7570 O   0  0  0  0  0  0  0  0  0  0  0  0
    0.6405   -0.2368   -0.9617 C   0  0  0  0  0  0  0  0  0  0  0  0
    1.2703   -1.6109   -1.0846 C   0  0  0  0  0  0  0  0  0  0  0  0
    1.3334   -2.5043   -0.0028 C   0  0  0  0  0  0  0  0  0  0  0  0
    1.9455   -3.7507   -0.1409 C   0  0  0  0  0  0  0  0  0  0  0  0
    2.5163   -4.1163   -1.3573 C   0  0  0  0  0  0  0  0  0  0  0  0
    2.4720   -3.2385   -2.4379 C   0  0  0  0  0  0  0  0  0  0  0  0
    1.8537   -1.9943   -2.3036 C   0  0  0  0  0  0  0  0  0  0  0  0
   -0.4599   -0.1088   -0.0003 N   0  0  0  0  0  0  0  0  0  0  0  0
   -1.6823   -0.8731   -0.2896 C   0  0  0  0  0  0  0  0  0  0  0  0
   -2.3919   -0.5887   -1.5977 C   0  0  0  0  0  0  0  0  0  0  0  0
   -3.4122    0.3717   -1.6651 C   0  0  0  0  0  0  0  0  0  0  0  0
   -4.0649    0.6339   -2.8707 C   0  0  0  0  0  0  0  0  0  0  0  0
   -3.7126   -0.0675   -4.0217 C   0  0  0  0  0  0  0  0  0  0  0  0
   -2.7132   -1.0366   -3.9667 C   0  0  0  0  0  0  0  0  0  0  0  0
   -2.0599   -1.2991   -2.7614 C   0  0  0  0  0  0  0  0  0  0  0  0
   -2.3633    2.6203    1.5616 C   0  0  0  0  0  0  0  0  0  0  0  0
   -3.6548    4.9890    2.9088 H   0  0  0  0  0  0  0  0  0  0  0  0
   -4.7619    3.7997    3.6378 H   0  0  0  0  0  0  0  0  0  0  0  0
   -4.6715    3.9461    1.8832 H   0  0  0  0  0  0  0  0  0  0  0  0
   -2.9616    2.6610    4.9148 H   0  0  0  0  0  0  0  0  0  0  0  0
   -1.1082    1.0294    4.8617 H   0  0  0  0  0  0  0  0  0  0  0  0
   -0.0518    0.4052    2.7245 H   0  0  0  0  0  0  0  0  0  0  0  0
   -1.2738    1.7416   -0.6213 H   0  0  0  0  0  0  0  0  0  0  0  0
    0.6764    2.7953   -0.6617 H   0  0  0  0  0  0  0  0  0  0  0  0
    1.1244    2.3760    0.9864 H   0  0  0  0  0  0  0  0  0  0  0  0
    2.1687    1.2523   -1.3906 H   0  0  0  0  0  0  0  0  0  0  0  0
    4.0240   -0.0404   -1.0514 H   0  0  0  0  0  0  0  0  0  0  0  0
    4.5406   -2.5659    0.9778 H   0  0  0  0  0  0  0  0  0  0  0  0
    5.7126   -2.1267    2.2482 H   0  0  0  0  0  0  0  0  0  0  0  0
    4.0188   -1.5934    2.4019 H   0  0  0  0  0  0  0  0  0  0  0  0
    0.2692    0.0535   -1.9548 H   0  0  0  0  0  0  0  0  0  0  0  0
    0.9021   -2.2316    0.9601 H   0  0  0  0  0  0  0  0  0  0  0  0
    1.9769   -4.4350    0.7033 H   0  0  0  0  0  0  0  0  0  0  0  0
    2.9930   -5.0876   -1.4642 H   0  0  0  0  0  0  0  0  0  0  0  0
    2.9151   -3.5271   -3.3881 H   0  0  0  0  0  0  0  0  0  0  0  0
    1.8233   -1.3285   -3.1642 H   0  0  0  0  0  0  0  0  0  0  0  0
   -2.3979   -0.7361    0.5321 H   0  0  0  0  0  0  0  0  0  0  0  0
   -1.4587   -1.9467   -0.2499 H   0  0  0  0  0  0  0  0  0  0  0  0
   -3.7098    0.9164   -0.7717 H   0  0  0  0  0  0  0  0  0  0  0  0
   -4.8540    1.3805   -2.9095 H   0  0  0  0  0  0  0  0  0  0  0  0
   -4.2246    0.1333   -4.9591 H   0  0  0  0  0  0  0  0  0  0  0  0
   -2.4477   -1.5948   -4.8607 H   0  0  0  0  0  0  0  0  0  0  0  0
   -1.2937   -2.0710   -2.7318 H   0  0  0  0  0  0  0  0  0  0  0  0
   -2.7076    3.0859    0.6401 H   0  0  0  0  0  0  0  0  0  0  0  0
  1  2  1  0
  2  3  2  0
  3  4  1  0
  4  5  2  0
  5  6  1  0
  6  7  1  0
  7  8  1  0
  8  9  1  0
  9 10  1  0
 10 11  2  0
 10 12  1  0
 12 13  1  0
 13 14  1  0
 13 15  2  0
 13 16  2  0
  9 17  1  0
 17 18  1  0
 18 19  2  0
 19 20  1  0
 20 21  2  0
 21 22  1  0
 22 23  2  0
 17 24  1  0
 24 25  1  0
 25 26  1  0
 26 27  2  0
 27 28  1  0
 28 29  2  0
 29 30  1  0
 30 31  2  0
  6 32  2  0
 32  2  1  0
 24  7  1  0
 31 26  1  0
 23 18  1  0
  1 33  1  0
  1 34  1  0
  1 35  1  0
  3 36  1  0
  4 37  1  0
  5 38  1  0
  7 39  1  0
  8 40  1  0
  8 41  1  0
  9 42  1  0
 12 43  1  0
 14 44  1  0
 14 45  1  0
 14 46  1  0
 17 47  1  0
 19 48  1  0
 20 49  1  0
 21 50  1  0
 22 51  1  0
 23 52  1  0
 25 53  1  0
 25 54  1  0
 27 55  1  0
 28 56  1  0
 29 57  1  0
 30 58  1  0
 31 59  1  0
 32 60  1  0
M  END
>  <smiles>  (2) 
Cc1cccc(C2CC(C(=O)NS(C)(=O)=O)C(c3ccccc3)N2Cc2ccccc2)c1

>  <mol_id>  (2) 
run14a_mol_9

>  <run_id>  (2) 
run14a

>  <original_index>  (2) 
9

>  <Agent>  (2) 
5.5401

>  <Prior>  (2) 
10.9942

>  <Target>  (2) 
100.2379

>  <Score>  (2) 
0.7415472

>  <SMILES>  (2) 
Cc1cccc(C2CC(C(=O)NS(C)(=O)=O)C(c3ccccc3)N2Cc2ccccc2)c1

>  <SMILES_state>  (2) 
1.0

>  <Input_Scaffold>  (2) 
c1ccc([*])cc1C1N([*])C(c2ccccc2)C(C(=O)N[*])C1

>  <R-groups>  (2) 
C*|c1ccccc1C*|CS(*)(=O)=O

>  <Scaffold>  (2) 
c1ccc(CN2C(c3ccccc3)CCC2c2ccccc2)cc1

>  <DENV_Activity>  (2) 
0.9429331

>  <DENV_Activity (raw)>  (2) 
7.6296

>  <Stereo_Centers>  (2) 
1e-05

>  <Stereo_Centers (raw)>  (2) 
3.0

>  <QED>  (2) 
0.6079462

>  <QED (raw)>  (2) 
0.6079

>  <SA>  (2) 
0.3914754

>  <SA (raw)>  (2) 
3.3578

>  <MW>  (2) 
0.9998361

>  <MW (raw)>  (2) 
448.588

>  <Heavy_Atoms>  (2) 
0.9653086

>  <Heavy_Atoms (raw)>  (2) 
32.0

>  <LogP>  (2) 
0.9466854

>  <LogP (raw)>  (2) 
4.3753

>  <TPSA>  (2) 
0.9999992

>  <TPSA (raw)>  (2) 
66.48

>  <HBA>  (2) 
0.8720069

>  <HBA (raw)>  (2) 
4.0

>  <HBD>  (2) 
0.9467598

>  <HBD (raw)>  (2) 
1.0

>  <Rotatable_Bonds>  (2) 
0.1279931

>  <Rotatable_Bonds (raw)>  (2) 
6.0

>  <Ring_Count>  (2) 
0.1279931

>  <Ring_Count (raw)>  (2) 
4.0

>  <Aromatic_Rings>  (2) 
0.0031523

>  <Aromatic_Rings (raw)>  (2) 
3.0

>  <Stability_Alerts>  (2) 
1.0

>  <Stability_Alerts (raw)>  (2) 
1.0

>  <matchting_patterns (Stability_Alerts)>  (2) 
[]

>  <step>  (2) 
1.0

$$$$
run14a_mol_9
     RDKit          3D

 60 63  0  0  0  0  0  0  0  0999 V2000
   -4.1408   -2.6953   -4.5250 C   0  0  0  0  0  0  0  0  0  0  0  0
   -3.5963   -2.3174   -3.1791 C   0  0  0  0  0  0  0  0  0  0  0  0
   -4.0959   -2.9183   -2.0198 C   0  0  0  0  0  0  0  0  0  0  0  0
   -3.5650   -2.5916   -0.7733 C   0  0  0  0  0  0  0  0  0  0  0  0
   -2.5235   -1.6688   -0.6752 C   0  0  0  0  0  0  0  0  0  0  0  0
   -1.9979   -1.0561   -1.8217 C   0  0  0  0  0  0  0  0  0  0  0  0
   -0.8457   -0.0753   -1.7617 C   0  0  0  0  0  0  0  0  0  0  0  0
    0.4965   -0.7890   -1.9122 C   0  0  0  0  0  0  0  0  0  0  0  0
    1.4595    0.2958   -1.4665 C   0  0  0  0  0  0  0  0  0  0  0  0
    2.8939   -0.0964   -1.1872 C   0  0  0  0  0  0  0  0  0  0  0  0
    3.8044    0.7020   -1.3769 O   0  0  0  0  0  0  0  0  0  0  0  0
    3.1218   -1.3690   -0.6484 N   0  0  0  0  0  0  0  0  0  0  0  0
    4.6120   -2.0365   -0.3775 S   0  0  0  0  0  0  0  0  0  0  0  0
    5.3084   -0.9944    0.8884 C   0  0  0  0  0  0  0  0  0  0  0  0
    4.3386   -3.3286    0.2185 O   0  0  0  0  0  0  0  0  0  0  0  0
    5.4006   -1.9344   -1.5838 O   0  0  0  0  0  0  0  0  0  0  0  0
    0.7332    1.0088   -0.3153 C   0  0  0  0  0  0  0  0  0  0  0  0
    1.2425    0.6376    1.0708 C   0  0  0  0  0  0  0  0  0  0  0  0
    0.8694   -0.5545    1.7134 C   0  0  0  0  0  0  0  0  0  0  0  0
    1.3789   -0.8785    2.9720 C   0  0  0  0  0  0  0  0  0  0  0  0
    2.2665   -0.0149    3.6086 C   0  0  0  0  0  0  0  0  0  0  0  0
    2.6463    1.1721    2.9873 C   0  0  0  0  0  0  0  0  0  0  0  0
    2.1410    1.4951    1.7267 C   0  0  0  0  0  0  0  0  0  0  0  0
   -0.7003    0.6466   -0.4817 N   0  0  0  0  0  0  0  0  0  0  0  0
   -1.6086    1.8016   -0.4015 C   0  0  0  0  0  0  0  0  0  0  0  0
   -1.6329    2.4584    0.9616 C   0  0  0  0  0  0  0  0  0  0  0  0
   -1.2050    3.7838    1.1261 C   0  0  0  0  0  0  0  0  0  0  0  0
   -1.2242    4.3830    2.3870 C   0  0  0  0  0  0  0  0  0  0  0  0
   -1.6720    3.6656    3.4946 C   0  0  0  0  0  0  0  0  0  0  0  0
   -2.1037    2.3495    3.3433 C   0  0  0  0  0  0  0  0  0  0  0  0
   -2.0875    1.7500    2.0835 C   0  0  0  0  0  0  0  0  0  0  0  0
   -2.5403   -1.4013   -3.0721 C   0  0  0  0  0  0  0  0  0  0  0  0
   -4.0791   -1.8525   -5.2214 H   0  0  0  0  0  0  0  0  0  0  0  0
   -3.5735   -3.5364   -4.9352 H   0  0  0  0  0  0  0  0  0  0  0  0
   -5.1956   -2.9808   -4.4542 H   0  0  0  0  0  0  0  0  0  0  0  0
   -4.9026   -3.6452   -2.0805 H   0  0  0  0  0  0  0  0  0  0  0  0
   -3.9616   -3.0586    0.1245 H   0  0  0  0  0  0  0  0  0  0  0  0
   -2.1262   -1.4294    0.3081 H   0  0  0  0  0  0  0  0  0  0  0  0
   -0.9509    0.6527   -2.5799 H   0  0  0  0  0  0  0  0  0  0  0  0
    0.6873   -1.1023   -2.9447 H   0  0  0  0  0  0  0  0  0  0  0  0
    0.5470   -1.6848   -1.2832 H   0  0  0  0  0  0  0  0  0  0  0  0
    1.5176    1.0069   -2.3069 H   0  0  0  0  0  0  0  0  0  0  0  0
    2.3629   -1.9546   -0.3152 H   0  0  0  0  0  0  0  0  0  0  0  0
    6.2739   -1.4189    1.1731 H   0  0  0  0  0  0  0  0  0  0  0  0
    4.6409   -0.9937    1.7507 H   0  0  0  0  0  0  0  0  0  0  0  0
    5.4541    0.0128    0.4979 H   0  0  0  0  0  0  0  0  0  0  0  0
    0.8750    2.0887   -0.4621 H   0  0  0  0  0  0  0  0  0  0  0  0
    0.1622   -1.2343    1.2453 H   0  0  0  0  0  0  0  0  0  0  0  0
    1.0728   -1.7998    3.4611 H   0  0  0  0  0  0  0  0  0  0  0  0
    2.6545   -0.2623    4.5932 H   0  0  0  0  0  0  0  0  0  0  0  0
    3.3315    1.8522    3.4870 H   0  0  0  0  0  0  0  0  0  0  0  0
    2.4496    2.4299    1.2624 H   0  0  0  0  0  0  0  0  0  0  0  0
   -1.3556    2.5424   -1.1719 H   0  0  0  0  0  0  0  0  0  0  0  0
   -2.6385    1.4863   -0.6146 H   0  0  0  0  0  0  0  0  0  0  0  0
   -0.8498    4.3584    0.2743 H   0  0  0  0  0  0  0  0  0  0  0  0
   -0.8876    5.4093    2.5061 H   0  0  0  0  0  0  0  0  0  0  0  0
   -1.6825    4.1307    4.4765 H   0  0  0  0  0  0  0  0  0  0  0  0
   -2.4474    1.7865    4.2066 H   0  0  0  0  0  0  0  0  0  0  0  0
   -2.4164    0.7189    1.9775 H   0  0  0  0  0  0  0  0  0  0  0  0
   -2.1359   -0.9513   -3.9775 H   0  0  0  0  0  0  0  0  0  0  0  0
  1  2  1  0
  2  3  2  0
  3  4  1  0
  4  5  2  0
  5  6  1  0
  6  7  1  0
  7  8  1  0
  8  9  1  0
  9 10  1  0
 10 11  2  0
 10 12  1  0
 12 13  1  0
 13 14  1  0
 13 15  2  0
 13 16  2  0
  9 17  1  0
 17 18  1  0
 18 19  2  0
 19 20  1  0
 20 21  2  0
 21 22  1  0
 22 23  2  0
 17 24  1  0
 24 25  1  0
 25 26  1  0
 26 27  2  0
 27 28  1  0
 28 29  2  0
 29 30  1  0
 30 31  2  0
  6 32  2  0
 32  2  1  0
 24  7  1  0
 31 26  1  0
 23 18  1  0
  1 33  1  0
  1 34  1  0
  1 35  1  0
  3 36  1  0
  4 37  1  0
  5 38  1  0
  7 39  1  0
  8 40  1  0
  8 41  1  0
  9 42  1  0
 12 43  1  0
 14 44  1  0
 14 45  1  0
 14 46  1  0
 17 47  1  0
 19 48  1  0
 20 49  1  0
 21 50  1  0
 22 51  1  0
 23 52  1  0
 25 53  1  0
 25 54  1  0
 27 55  1  0
 28 56  1  0
 29 57  1  0
 30 58  1  0
 31 59  1  0
 32 60  1  0
M  END
>  <smiles>  (3) 
Cc1cccc(C2CC(C(=O)NS(C)(=O)=O)C(c3ccccc3)N2Cc2ccccc2)c1

>  <mol_id>  (3) 
run14a_mol_9

>  <run_id>  (3) 
run14a

>  <original_index>  (3) 
9

>  <Agent>  (3) 
5.5401

>  <Prior>  (3) 
10.9942

>  <Target>  (3) 
100.2379

>  <Score>  (3) 
0.7415472

>  <SMILES>  (3) 
Cc1cccc(C2CC(C(=O)NS(C)(=O)=O)C(c3ccccc3)N2Cc2ccccc2)c1

>  <SMILES_state>  (3) 
1.0

>  <Input_Scaffold>  (3) 
c1ccc([*])cc1C1N([*])C(c2ccccc2)C(C(=O)N[*])C1

>  <R-groups>  (3) 
C*|c1ccccc1C*|CS(*)(=O)=O

>  <Scaffold>  (3) 
c1ccc(CN2C(c3ccccc3)CCC2c2ccccc2)cc1

>  <DENV_Activity>  (3) 
0.9429331

>  <DENV_Activity (raw)>  (3) 
7.6296

>  <Stereo_Centers>  (3) 
1e-05

>  <Stereo_Centers (raw)>  (3) 
3.0

>  <QED>  (3) 
0.6079462

>  <QED (raw)>  (3) 
0.6079

>  <SA>  (3) 
0.3914754

>  <SA (raw)>  (3) 
3.3578

>  <MW>  (3) 
0.9998361

>  <MW (raw)>  (3) 
448.588

>  <Heavy_Atoms>  (3) 
0.9653086

>  <Heavy_Atoms (raw)>  (3) 
32.0

>  <LogP>  (3) 
0.9466854

>  <LogP (raw)>  (3) 
4.3753

>  <TPSA>  (3) 
0.9999992

>  <TPSA (raw)>  (3) 
66.48

>  <HBA>  (3) 
0.8720069

>  <HBA (raw)>  (3) 
4.0

>  <HBD>  (3) 
0.9467598

>  <HBD (raw)>  (3) 
1.0

>  <Rotatable_Bonds>  (3) 
0.1279931

>  <Rotatable_Bonds (raw)>  (3) 
6.0

>  <Ring_Count>  (3) 
0.1279931

>  <Ring_Count (raw)>  (3) 
4.0

>  <Aromatic_Rings>  (3) 
0.0031523

>  <Aromatic_Rings (raw)>  (3) 
3.0

>  <Stability_Alerts>  (3) 
1.0

>  <Stability_Alerts (raw)>  (3) 
1.0

>  <matchting_patterns (Stability_Alerts)>  (3) 
[]

>  <step>  (3) 
1.0

$$$$
run14a_mol_9
     RDKit          3D

 60 63  0  0  0  0  0  0  0  0999 V2000
   -4.6244   -1.5318   -3.3382 C   0  0  0  0  0  0  0  0  0  0  0  0
   -3.6579   -1.7195   -2.2069 C   0  0  0  0  0  0  0  0  0  0  0  0
   -3.9779   -2.5552   -1.1325 C   0  0  0  0  0  0  0  0  0  0  0  0
   -3.0995   -2.6888   -0.0588 C   0  0  0  0  0  0  0  0  0  0  0  0
   -1.8981   -1.9805   -0.0453 C   0  0  0  0  0  0  0  0  0  0  0  0
   -1.5568   -1.1264   -1.1057 C   0  0  0  0  0  0  0  0  0  0  0  0
   -0.2568   -0.3420   -1.1108 C   0  0  0  0  0  0  0  0  0  0  0  0
    0.9556   -1.2861   -1.2050 C   0  0  0  0  0  0  0  0  0  0  0  0
    1.6879   -1.1071    0.1173 C   0  0  0  0  0  0  0  0  0  0  0  0
    3.1749   -1.3740    0.0297 C   0  0  0  0  0  0  0  0  0  0  0  0
    3.7088   -2.2428    0.7063 O   0  0  0  0  0  0  0  0  0  0  0  0
    3.9175   -0.5656   -0.8460 N   0  0  0  0  0  0  0  0  0  0  0  0
    5.4923   -0.8508   -1.2842 S   0  0  0  0  0  0  0  0  0  0  0  0
    6.3912   -0.6750    0.2454 C   0  0  0  0  0  0  0  0  0  0  0  0
    5.6032   -2.2033   -1.7768 O   0  0  0  0  0  0  0  0  0  0  0  0
    5.8349    0.2750   -2.1295 O   0  0  0  0  0  0  0  0  0  0  0  0
    1.3538    0.3287    0.5088 C   0  0  0  0  0  0  0  0  0  0  0  0
    1.6177    0.5981    1.9771 C   0  0  0  0  0  0  0  0  0  0  0  0
    0.7779    0.0894    2.9807 C   0  0  0  0  0  0  0  0  0  0  0  0
    1.0501    0.3297    4.3281 C   0  0  0  0  0  0  0  0  0  0  0  0
    2.1665    1.0790    4.6911 C   0  0  0  0  0  0  0  0  0  0  0  0
    3.0107    1.5898    3.7078 C   0  0  0  0  0  0  0  0  0  0  0  0
    2.7398    1.3509    2.3591 C   0  0  0  0  0  0  0  0  0  0  0  0
   -0.0675    0.4457    0.1285 N   0  0  0  0  0  0  0  0  0  0  0  0
   -0.4846    1.8526    0.0003 C   0  0  0  0  0  0  0  0  0  0  0  0
   -1.9701    2.0439   -0.2093 C   0  0  0  0  0  0  0  0  0  0  0  0
   -2.8883    1.5806    0.7445 C   0  0  0  0  0  0  0  0  0  0  0  0
   -4.2594    1.7536    0.5529 C   0  0  0  0  0  0  0  0  0  0  0  0
   -4.7278    2.4011   -0.5884 C   0  0  0  0  0  0  0  0  0  0  0  0
   -3.8260    2.8767   -1.5384 C   0  0  0  0  0  0  0  0  0  0  0  0
   -2.4536    2.7014   -1.3501 C   0  0  0  0  0  0  0  0  0  0  0  0
   -2.4520   -1.0048   -2.1814 C   0  0  0  0  0  0  0  0  0  0  0  0
   -4.0935   -1.3432   -4.2772 H   0  0  0  0  0  0  0  0  0  0  0  0
   -5.2854   -0.6852   -3.1283 H   0  0  0  0  0  0  0  0  0  0  0  0
   -5.2347   -2.4291   -3.4853 H   0  0  0  0  0  0  0  0  0  0  0  0
   -4.9177   -3.1019   -1.1222 H   0  0  0  0  0  0  0  0  0  0  0  0
   -3.3555   -3.3377    0.7743 H   0  0  0  0  0  0  0  0  0  0  0  0
   -1.2347   -2.0853    0.8090 H   0  0  0  0  0  0  0  0  0  0  0  0
   -0.2246    0.3121   -1.9931 H   0  0  0  0  0  0  0  0  0  0  0  0
    1.5845   -0.9838   -2.0513 H   0  0  0  0  0  0  0  0  0  0  0  0
    0.6945   -2.3381   -1.3680 H   0  0  0  0  0  0  0  0  0  0  0  0
    1.2730   -1.8187    0.8453 H   0  0  0  0  0  0  0  0  0  0  0  0
    3.4941    0.1649   -1.4086 H   0  0  0  0  0  0  0  0  0  0  0  0
    7.4573   -0.7086    0.0090 H   0  0  0  0  0  0  0  0  0  0  0  0
    6.1438    0.2901    0.6917 H   0  0  0  0  0  0  0  0  0  0  0  0
    6.1412   -1.4971    0.9159 H   0  0  0  0  0  0  0  0  0  0  0  0
    1.9409    1.0349   -0.0947 H   0  0  0  0  0  0  0  0  0  0  0  0
   -0.1017   -0.4941    2.7152 H   0  0  0  0  0  0  0  0  0  0  0  0
    0.3892   -0.0681    5.0939 H   0  0  0  0  0  0  0  0  0  0  0  0
    2.3774    1.2654    5.7409 H   0  0  0  0  0  0  0  0  0  0  0  0
    3.8806    2.1758    3.9935 H   0  0  0  0  0  0  0  0  0  0  0  0
    3.4137    1.7629    1.6117 H   0  0  0  0  0  0  0  0  0  0  0  0
   -0.2322    2.4041    0.9155 H   0  0  0  0  0  0  0  0  0  0  0  0
    0.0743    2.3420   -0.8087 H   0  0  0  0  0  0  0  0  0  0  0  0
   -2.5324    1.0618    1.6319 H   0  0  0  0  0  0  0  0  0  0  0  0
   -4.9605    1.3745    1.2912 H   0  0  0  0  0  0  0  0  0  0  0  0
   -5.7960    2.5316   -0.7378 H   0  0  0  0  0  0  0  0  0  0  0  0
   -4.1926    3.3823   -2.4276 H   0  0  0  0  0  0  0  0  0  0  0  0
   -1.7660    3.0775   -2.1031 H   0  0  0  0  0  0  0  0  0  0  0  0
   -2.2189   -0.3312   -3.0035 H   0  0  0  0  0  0  0  0  0  0  0  0
  1  2  1  0
  2  3  2  0
  3  4  1  0
  4  5  2  0
  5  6  1  0
  6  7  1  0
  7  8  1  0
  8  9  1  0
  9 10  1  0
 10 11  2  0
 10 12  1  0
 12 13  1  0
 13 14  1  0
 13 15  2  0
 13 16  2  0
  9 17  1  0
 17 18  1  0
 18 19  2  0
 19 20  1  0
 20 21  2  0
 21 22  1  0
 22 23  2  0
 17 24  1  0
 24 25  1  0
 25 26  1  0
 26 27  2  0
 27 28  1  0
 28 29  2  0
 29 30  1  0
 30 31  2  0
  6 32  2  0
 32  2  1  0
 24  7  1  0
 31 26  1  0
 23 18  1  0
  1 33  1  0
  1 34  1  0
  1 35  1  0
  3 36  1  0
  4 37  1  0
  5 38  1  0
  7 39  1  0
  8 40  1  0
  8 41  1  0
  9 42  1  0
 12 43  1  0
 14 44  1  0
 14 45  1  0
 14 46  1  0
 17 47  1  0
 19 48  1  0
 20 49  1  0
 21 50  1  0
 22 51  1  0
 23 52  1  0
 25 53  1  0
 25 54  1  0
 27 55  1  0
 28 56  1  0
 29 57  1  0
 30 58  1  0
 31 59  1  0
 32 60  1  0
M  END
>  <smiles>  (4) 
Cc1cccc(C2CC(C(=O)NS(C)(=O)=O)C(c3ccccc3)N2Cc2ccccc2)c1

>  <mol_id>  (4) 
run14a_mol_9

>  <run_id>  (4) 
run14a

>  <original_index>  (4) 
9

>  <Agent>  (4) 
5.5401

>  <Prior>  (4) 
10.9942

>  <Target>  (4) 
100.2379

>  <Score>  (4) 
0.7415472

>  <SMILES>  (4) 
Cc1cccc(C2CC(C(=O)NS(C)(=O)=O)C(c3ccccc3)N2Cc2ccccc2)c1

>  <SMILES_state>  (4) 
1.0

>  <Input_Scaffold>  (4) 
c1ccc([*])cc1C1N([*])C(c2ccccc2)C(C(=O)N[*])C1

>  <R-groups>  (4) 
C*|c1ccccc1C*|CS(*)(=O)=O

>  <Scaffold>  (4) 
c1ccc(CN2C(c3ccccc3)CCC2c2ccccc2)cc1

>  <DENV_Activity>  (4) 
0.9429331

>  <DENV_Activity (raw)>  (4) 
7.6296

>  <Stereo_Centers>  (4) 
1e-05

>  <Stereo_Centers (raw)>  (4) 
3.0

>  <QED>  (4) 
0.6079462

>  <QED (raw)>  (4) 
0.6079

>  <SA>  (4) 
0.3914754

>  <SA (raw)>  (4) 
3.3578

>  <MW>  (4) 
0.9998361

>  <MW (raw)>  (4) 
448.588

>  <Heavy_Atoms>  (4) 
0.9653086

>  <Heavy_Atoms (raw)>  (4) 
32.0

>  <LogP>  (4) 
0.9466854

>  <LogP (raw)>  (4) 
4.3753

>  <TPSA>  (4) 
0.9999992

>  <TPSA (raw)>  (4) 
66.48

>  <HBA>  (4) 
0.8720069

>  <HBA (raw)>  (4) 
4.0

>  <HBD>  (4) 
0.9467598

>  <HBD (raw)>  (4) 
1.0

>  <Rotatable_Bonds>  (4) 
0.1279931

>  <Rotatable_Bonds (raw)>  (4) 
6.0

>  <Ring_Count>  (4) 
0.1279931

>  <Ring_Count (raw)>  (4) 
4.0

>  <Aromatic_Rings>  (4) 
0.0031523

>  <Aromatic_Rings (raw)>  (4) 
3.0

>  <Stability_Alerts>  (4) 
1.0

>  <Stability_Alerts (raw)>  (4) 
1.0

>  <matchting_patterns (Stability_Alerts)>  (4) 
[]

>  <step>  (4) 
1.0

$$$$
run14a_mol_9
     RDKit          3D

 60 63  0  0  0  0  0  0  0  0999 V2000
    0.3911    1.7090   -4.4887 C   0  0  0  0  0  0  0  0  0  0  0  0
   -0.7266    1.2128   -3.6183 C   0  0  0  0  0  0  0  0  0  0  0  0
   -1.9845    0.9448   -4.1639 C   0  0  0  0  0  0  0  0  0  0  0  0
   -3.0270    0.5224   -3.3438 C   0  0  0  0  0  0  0  0  0  0  0  0
   -2.8211    0.3749   -1.9717 C   0  0  0  0  0  0  0  0  0  0  0  0
   -1.5702    0.6449   -1.3897 C   0  0  0  0  0  0  0  0  0  0  0  0
   -1.4126    0.4700    0.1167 C   0  0  0  0  0  0  0  0  0  0  0  0
   -0.7155    1.6647    0.7861 C   0  0  0  0  0  0  0  0  0  0  0  0
    0.6694    1.1644    1.2064 C   0  0  0  0  0  0  0  0  0  0  0  0
    1.7721    2.0628    0.6900 C   0  0  0  0  0  0  0  0  0  0  0  0
    2.4988    1.7788   -0.2505 O   0  0  0  0  0  0  0  0  0  0  0  0
    1.9182    3.2587    1.4089 N   0  0  0  0  0  0  0  0  0  0  0  0
    2.8520    4.5418    0.9318 S   0  0  0  0  0  0  0  0  0  0  0  0
    4.5115    3.9051    1.0581 C   0  0  0  0  0  0  0  0  0  0  0  0
    2.6779    5.5324    1.9740 O   0  0  0  0  0  0  0  0  0  0  0  0
    2.5497    4.8555   -0.4452 O   0  0  0  0  0  0  0  0  0  0  0  0
    0.7767   -0.2604    0.6518 C   0  0  0  0  0  0  0  0  0  0  0  0
    1.6534   -1.1115    1.5581 C   0  0  0  0  0  0  0  0  0  0  0  0
    2.9834   -1.3687    1.1895 C   0  0  0  0  0  0  0  0  0  0  0  0
    3.8189   -2.1217    2.0163 C   0  0  0  0  0  0  0  0  0  0  0  0
    3.3383   -2.6235    3.2238 C   0  0  0  0  0  0  0  0  0  0  0  0
    2.0229   -2.3721    3.6070 C   0  0  0  0  0  0  0  0  0  0  0  0
    1.1866   -1.6183    2.7821 C   0  0  0  0  0  0  0  0  0  0  0  0
   -0.6300   -0.6874    0.5947 N   0  0  0  0  0  0  0  0  0  0  0  0
   -0.8301   -1.9465   -0.1326 C   0  0  0  0  0  0  0  0  0  0  0  0
   -2.2205   -2.5285    0.0312 C   0  0  0  0  0  0  0  0  0  0  0  0
   -2.8017   -2.6664    1.3009 C   0  0  0  0  0  0  0  0  0  0  0  0
   -4.0718   -3.2268    1.4451 C   0  0  0  0  0  0  0  0  0  0  0  0
   -4.7713   -3.6669    0.3233 C   0  0  0  0  0  0  0  0  0  0  0  0
   -4.1996   -3.5516   -0.9422 C   0  0  0  0  0  0  0  0  0  0  0  0
   -2.9290   -2.9917   -1.0872 C   0  0  0  0  0  0  0  0  0  0  0  0
   -0.5331    1.0726   -2.2350 C   0  0  0  0  0  0  0  0  0  0  0  0
    1.3591    1.3544   -4.1192 H   0  0  0  0  0  0  0  0  0  0  0  0
    0.3956    2.8032   -4.5036 H   0  0  0  0  0  0  0  0  0  0  0  0
    0.2814    1.3420   -5.5146 H   0  0  0  0  0  0  0  0  0  0  0  0
   -2.1595    1.0663   -5.2302 H   0  0  0  0  0  0  0  0  0  0  0  0
   -4.0037    0.3107   -3.7709 H   0  0  0  0  0  0  0  0  0  0  0  0
   -3.6526    0.0403   -1.3530 H   0  0  0  0  0  0  0  0  0  0  0  0
   -2.4190    0.4033    0.5508 H   0  0  0  0  0  0  0  0  0  0  0  0
   -1.2679    1.9439    1.6934 H   0  0  0  0  0  0  0  0  0  0  0  0
   -0.6790    2.5591    0.1539 H   0  0  0  0  0  0  0  0  0  0  0  0
    0.7239    1.1698    2.3043 H   0  0  0  0  0  0  0  0  0  0  0  0
    1.3468    3.4624    2.2243 H   0  0  0  0  0  0  0  0  0  0  0  0
    4.6683    3.5249    2.0692 H   0  0  0  0  0  0  0  0  0  0  0  0
    5.2000    4.7306    0.8637 H   0  0  0  0  0  0  0  0  0  0  0  0
    4.6604    3.1221    0.3141 H   0  0  0  0  0  0  0  0  0  0  0  0
    1.1990   -0.2796   -0.3604 H   0  0  0  0  0  0  0  0  0  0  0  0
    3.3793   -0.9832    0.2510 H   0  0  0  0  0  0  0  0  0  0  0  0
    4.8449   -2.3187    1.7160 H   0  0  0  0  0  0  0  0  0  0  0  0
    3.9881   -3.2135    3.8648 H   0  0  0  0  0  0  0  0  0  0  0  0
    1.6457   -2.7662    4.5470 H   0  0  0  0  0  0  0  0  0  0  0  0
    0.1610   -1.4335    3.0950 H   0  0  0  0  0  0  0  0  0  0  0  0
   -0.5779   -1.8376   -1.1946 H   0  0  0  0  0  0  0  0  0  0  0  0
   -0.1468   -2.7149    0.2520 H   0  0  0  0  0  0  0  0  0  0  0  0
   -2.2613   -2.3327    2.1836 H   0  0  0  0  0  0  0  0  0  0  0  0
   -4.5127   -3.3233    2.4336 H   0  0  0  0  0  0  0  0  0  0  0  0
   -5.7593   -4.1049    0.4358 H   0  0  0  0  0  0  0  0  0  0  0  0
   -4.7411   -3.9003   -1.8175 H   0  0  0  0  0  0  0  0  0  0  0  0
   -2.4961   -2.9102   -2.0823 H   0  0  0  0  0  0  0  0  0  0  0  0
    0.4470    1.3119   -1.8332 H   0  0  0  0  0  0  0  0  0  0  0  0
  1  2  1  0
  2  3  2  0
  3  4  1  0
  4  5  2  0
  5  6  1  0
  6  7  1  0
  7  8  1  0
  8  9  1  0
  9 10  1  0
 10 11  2  0
 10 12  1  0
 12 13  1  0
 13 14  1  0
 13 15  2  0
 13 16  2  0
  9 17  1  0
 17 18  1  0
 18 19  2  0
 19 20  1  0
 20 21  2  0
 21 22  1  0
 22 23  2  0
 17 24  1  0
 24 25  1  0
 25 26  1  0
 26 27  2  0
 27 28  1  0
 28 29  2  0
 29 30  1  0
 30 31  2  0
  6 32  2  0
 32  2  1  0
 24  7  1  0
 31 26  1  0
 23 18  1  0
  1 33  1  0
  1 34  1  0
  1 35  1  0
  3 36  1  0
  4 37  1  0
  5 38  1  0
  7 39  1  0
  8 40  1  0
  8 41  1  0
  9 42  1  0
 12 43  1  0
 14 44  1  0
 14 45  1  0
 14 46  1  0
 17 47  1  0
 19 48  1  0
 20 49  1  0
 21 50  1  0
 22 51  1  0
 23 52  1  0
 25 53  1  0
 25 54  1  0
 27 55  1  0
 28 56  1  0
 29 57  1  0
 30 58  1  0
 31 59  1  0
 32 60  1  0
M  END
>  <smiles>  (5) 
Cc1cccc(C2CC(C(=O)NS(C)(=O)=O)C(c3ccccc3)N2Cc2ccccc2)c1

>  <mol_id>  (5) 
run14a_mol_9

>  <run_id>  (5) 
run14a

>  <original_index>  (5) 
9

>  <Agent>  (5) 
5.5401

>  <Prior>  (5) 
10.9942

>  <Target>  (5) 
100.2379

>  <Score>  (5) 
0.7415472

>  <SMILES>  (5) 
Cc1cccc(C2CC(C(=O)NS(C)(=O)=O)C(c3ccccc3)N2Cc2ccccc2)c1

>  <SMILES_state>  (5) 
1.0

>  <Input_Scaffold>  (5) 
c1ccc([*])cc1C1N([*])C(c2ccccc2)C(C(=O)N[*])C1

>  <R-groups>  (5) 
C*|c1ccccc1C*|CS(*)(=O)=O

>  <Scaffold>  (5) 
c1ccc(CN2C(c3ccccc3)CCC2c2ccccc2)cc1

>  <DENV_Activity>  (5) 
0.9429331

>  <DENV_Activity (raw)>  (5) 
7.6296

>  <Stereo_Centers>  (5) 
1e-05

>  <Stereo_Centers (raw)>  (5) 
3.0

>  <QED>  (5) 
0.6079462

>  <QED (raw)>  (5) 
0.6079

>  <SA>  (5) 
0.3914754

>  <SA (raw)>  (5) 
3.3578

>  <MW>  (5) 
0.9998361

>  <MW (raw)>  (5) 
448.588

>  <Heavy_Atoms>  (5) 
0.9653086

>  <Heavy_Atoms (raw)>  (5) 
32.0

>  <LogP>  (5) 
0.9466854

>  <LogP (raw)>  (5) 
4.3753

>  <TPSA>  (5) 
0.9999992

>  <TPSA (raw)>  (5) 
66.48

>  <HBA>  (5) 
0.8720069

>  <HBA (raw)>  (5) 
4.0

>  <HBD>  (5) 
0.9467598

>  <HBD (raw)>  (5) 
1.0

>  <Rotatable_Bonds>  (5) 
0.1279931

>  <Rotatable_Bonds (raw)>  (5) 
6.0

>  <Ring_Count>  (5) 
0.1279931

>  <Ring_Count (raw)>  (5) 
4.0

>  <Aromatic_Rings>  (5) 
0.0031523

>  <Aromatic_Rings (raw)>  (5) 
3.0

>  <Stability_Alerts>  (5) 
1.0

>  <Stability_Alerts (raw)>  (5) 
1.0

>  <matchting_patterns (Stability_Alerts)>  (5) 
[]

>  <step>  (5) 
1.0

$$$$
