run14a_mol_4
     RDKit          3D

 53 55  0  0  0  0  0  0  0  0999 V2000
    1.6658   -1.8616   -3.4915 C   0  0  0  0  0  0  0  0  0  0  0  0
    1.1941   -0.5692   -2.8418 C   0  0  0  0  0  0  0  0  0  0  0  0
    0.4404   -0.8467   -1.5360 C   0  0  0  0  0  0  0  0  0  0  0  0
   -0.0249    0.3922   -0.9091 N   0  0  0  0  0  0  0  0  0  0  0  0
    1.0072    1.2437   -0.2828 C   0  0  0  0  0  0  0  0  0  0  0  0
    2.1073    0.5387    0.5064 C   0  0  0  0  0  0  0  0  0  0  0  0
    1.9109   -0.0123    1.7804 C   0  0  0  0  0  0  0  0  0  0  0  0
    2.9491   -0.6631    2.4511 C   0  0  0  0  0  0  0  0  0  0  0  0
    4.2067   -0.7726    1.8631 C   0  0  0  0  0  0  0  0  0  0  0  0
    4.4424   -0.2166    0.6043 C   0  0  0  0  0  0  0  0  0  0  0  0
    5.7852   -0.3536   -0.0497 C   0  0  0  0  0  0  0  0  0  0  0  0
    3.3899    0.4249   -0.0653 C   0  0  0  0  0  0  0  0  0  0  0  0
    0.1836    2.2311    0.5567 C   0  0  0  0  0  0  0  0  0  0  0  0
   -1.1909    1.5802    0.7640 C   0  0  0  0  0  0  0  0  0  0  0  0
   -1.6032    1.4516    2.2231 C   0  0  0  0  0  0  0  0  0  0  0  0
   -0.8454    1.6639    3.1642 O   0  0  0  0  0  0  0  0  0  0  0  0
   -2.9163    1.0700    2.4018 N   0  0  0  0  0  0  0  0  0  0  0  0
   -3.4996    0.9866    3.7164 C   0  0  0  0  0  0  0  0  0  0  0  0
   -1.0863    0.2004    0.0930 C   0  0  0  0  0  0  0  0  0  0  0  0
   -2.4133   -0.2257   -0.5233 C   0  0  0  0  0  0  0  0  0  0  0  0
   -2.9635    0.4497   -1.6250 C   0  0  0  0  0  0  0  0  0  0  0  0
   -4.1921    0.0596   -2.1596 C   0  0  0  0  0  0  0  0  0  0  0  0
   -4.8869   -1.0112   -1.6017 C   0  0  0  0  0  0  0  0  0  0  0  0
   -4.3521   -1.6957   -0.5125 C   0  0  0  0  0  0  0  0  0  0  0  0
   -3.1226   -1.3075    0.0227 C   0  0  0  0  0  0  0  0  0  0  0  0
    2.3516   -2.4032   -2.8322 H   0  0  0  0  0  0  0  0  0  0  0  0
    0.8200   -2.5170   -3.7227 H   0  0  0  0  0  0  0  0  0  0  0  0
    2.1928   -1.6453   -4.4261 H   0  0  0  0  0  0  0  0  0  0  0  0
    0.5374   -0.0375   -3.5413 H   0  0  0  0  0  0  0  0  0  0  0  0
    2.0633    0.0720   -2.6714 H   0  0  0  0  0  0  0  0  0  0  0  0
    1.0453   -1.4544   -0.8533 H   0  0  0  0  0  0  0  0  0  0  0  0
   -0.4204   -1.4731   -1.8013 H   0  0  0  0  0  0  0  0  0  0  0  0
    1.4932    1.8280   -1.0753 H   0  0  0  0  0  0  0  0  0  0  0  0
    0.9512    0.0582    2.2821 H   0  0  0  0  0  0  0  0  0  0  0  0
    2.7725   -1.0831    3.4381 H   0  0  0  0  0  0  0  0  0  0  0  0
    5.0013   -1.2881    2.3967 H   0  0  0  0  0  0  0  0  0  0  0  0
    6.5813   -0.4192    0.6993 H   0  0  0  0  0  0  0  0  0  0  0  0
    5.8087   -1.2549   -0.6699 H   0  0  0  0  0  0  0  0  0  0  0  0
    6.0028    0.5160   -0.6787 H   0  0  0  0  0  0  0  0  0  0  0  0
    3.5767    0.8460   -1.0517 H   0  0  0  0  0  0  0  0  0  0  0  0
    0.0335    3.1508   -0.0257 H   0  0  0  0  0  0  0  0  0  0  0  0
    0.6837    2.5347    1.4817 H   0  0  0  0  0  0  0  0  0  0  0  0
   -1.9361    2.2260    0.2789 H   0  0  0  0  0  0  0  0  0  0  0  0
   -3.5405    1.0789    1.6021 H   0  0  0  0  0  0  0  0  0  0  0  0
   -2.7966    0.5266    4.4160 H   0  0  0  0  0  0  0  0  0  0  0  0
   -3.7430    1.9969    4.0555 H   0  0  0  0  0  0  0  0  0  0  0  0
   -4.4105    0.3869    3.6548 H   0  0  0  0  0  0  0  0  0  0  0  0
   -0.7746   -0.5583    0.8232 H   0  0  0  0  0  0  0  0  0  0  0  0
   -2.4245    1.2791   -2.0798 H   0  0  0  0  0  0  0  0  0  0  0  0
   -4.6022    0.5875   -3.0167 H   0  0  0  0  0  0  0  0  0  0  0  0
   -5.8413   -1.3177   -2.0217 H   0  0  0  0  0  0  0  0  0  0  0  0
   -4.8902   -2.5365   -0.0822 H   0  0  0  0  0  0  0  0  0  0  0  0
   -2.7208   -1.8559    0.8726 H   0  0  0  0  0  0  0  0  0  0  0  0
  1  2  1  0
  2  3  1  0
  3  4  1  0
  4  5  1  0
  5  6  1  0
  6  7  2  0
  7  8  1  0
  8  9  2  0
  9 10  1  0
 10 11  1  0
 10 12  2  0
  5 13  1  0
 13 14  1  0
 14 15  1  0
 15 16  2  0
 15 17  1  0
 17 18  1  0
 14 19  1  0
 19 20  1  0
 20 21  2  0
 21 22  1  0
 22 23  2  0
 23 24  1  0
 24 25  2  0
 19  4  1  0
 25 20  1  0
 12  6  1  0
  1 26  1  0
  1 27  1  0
  1 28  1  0
  2 29  1  0
  2 30  1  0
  3 31  1  0
  3 32  1  0
  5 33  1  0
  7 34  1  0
  8 35  1  0
  9 36  1  0
 11 37  1  0
 11 38  1  0
 11 39  1  0
 12 40  1  0
 13 41  1  0
 13 42  1  0
 14 43  1  0
 17 44  1  0
 18 45  1  0
 18 46  1  0
 18 47  1  0
 19 48  1  0
 21 49  1  0
 22 50  1  0
 23 51  1  0
 24 52  1  0
 25 53  1  0
M  END
>  <smiles>  (1) 
CCCN1C(c2cccc(C)c2)CC(C(=O)NC)C1c1ccccc1

>  <mol_id>  (1) 
run14a_mol_4

>  <run_id>  (1) 
run14a

>  <original_index>  (1) 
4

>  <Agent>  (1) 
8.2606

>  <Prior>  (1) 
20.3384

>  <Target>  (1) 
97.7393

>  <Score>  (1) 
0.7871846

>  <SMILES>  (1) 
CCCN1C(c2cccc(C)c2)CC(C(=O)NC)C1c1ccccc1

>  <SMILES_state>  (1) 
1.0

>  <Input_Scaffold>  (1) 
c1ccc([*])cc1C1N([*])C(c2ccccc2)C(C(=O)N[*])C1

>  <R-groups>  (1) 
*C|CCC*|*C

>  <Scaffold>  (1) 
c1ccc(C2CCC(c3ccccc3)N2)cc1

>  <DENV_Activity>  (1) 
0.9470109

>  <DENV_Activity (raw)>  (1) 
7.5913

>  <Stereo_Centers>  (1) 
1e-05

>  <Stereo_Centers (raw)>  (1) 
3.0

>  <QED>  (1) 
0.8848567

>  <QED (raw)>  (1) 
0.8849

>  <SA>  (1) 
0.413515

>  <SA (raw)>  (1) 
3.3354

>  <MW>  (1) 
0.9931601

>  <MW (raw)>  (1) 
336.479

>  <Heavy_Atoms>  (1) 
0.8570375

>  <Heavy_Atoms (raw)>  (1) 
25.0

>  <LogP>  (1) 
0.9686102

>  <LogP (raw)>  (1) 
4.2553

>  <TPSA>  (1) 
0.7105401

>  <TPSA (raw)>  (1) 
32.34

>  <HBA>  (1) 
0.9968477

>  <HBA (raw)>  (1) 
2.0

>  <HBD>  (1) 
0.9467598

>  <HBD (raw)>  (1) 
1.0

>  <Rotatable_Bonds>  (1) 
0.3453354

>  <Rotatable_Bonds (raw)>  (1) 
5.0

>  <Ring_Count>  (1) 
0.8720069

>  <Ring_Count (raw)>  (1) 
3.0

>  <Aromatic_Rings>  (1) 
0.5

>  <Aromatic_Rings (raw)>  (1) 
2.0

>  <Stability_Alerts>  (1) 
1.0

>  <Stability_Alerts (raw)>  (1) 
1.0

>  <matchting_patterns (Stability_Alerts)>  (1) 
[]

>  <step>  (1) 
1.0

$$$$
run14a_mol_4
     RDKit          3D

 53 55  0  0  0  0  0  0  0  0999 V2000
    0.4730   -3.8212   -1.4446 C   0  0  0  0  0  0  0  0  0  0  0  0
    0.1630   -2.3315   -1.4456 C   0  0  0  0  0  0  0  0  0  0  0  0
    0.5365   -1.6854   -0.1062 C   0  0  0  0  0  0  0  0  0  0  0  0
    0.2746   -0.2506   -0.1039 N   0  0  0  0  0  0  0  0  0  0  0  0
    0.9865    0.5300    0.9130 C   0  0  0  0  0  0  0  0  0  0  0  0
    2.4918    0.5813    0.7437 C   0  0  0  0  0  0  0  0  0  0  0  0
    3.3253    0.4508    1.8639 C   0  0  0  0  0  0  0  0  0  0  0  0
    4.7127    0.5156    1.7289 C   0  0  0  0  0  0  0  0  0  0  0  0
    5.2864    0.7106    0.4731 C   0  0  0  0  0  0  0  0  0  0  0  0
    4.4783    0.8332   -0.6614 C   0  0  0  0  0  0  0  0  0  0  0  0
    5.0879    1.0786   -2.0095 C   0  0  0  0  0  0  0  0  0  0  0  0
    3.0856    0.7819   -0.5148 C   0  0  0  0  0  0  0  0  0  0  0  0
    0.3637    1.9142    0.7410 C   0  0  0  0  0  0  0  0  0  0  0  0
   -1.1145    1.6099    0.5255 C   0  0  0  0  0  0  0  0  0  0  0  0
   -1.8438    2.6534   -0.3033 C   0  0  0  0  0  0  0  0  0  0  0  0
   -1.2996    3.6453   -0.7769 O   0  0  0  0  0  0  0  0  0  0  0  0
   -3.1949    2.4039   -0.4452 N   0  0  0  0  0  0  0  0  0  0  0  0
   -4.0556    3.3486   -1.1110 C   0  0  0  0  0  0  0  0  0  0  0  0
   -1.1254    0.2233   -0.1566 C   0  0  0  0  0  0  0  0  0  0  0  0
   -2.1921   -0.6743    0.4681 C   0  0  0  0  0  0  0  0  0  0  0  0
   -2.1917   -1.0126    1.8316 C   0  0  0  0  0  0  0  0  0  0  0  0
   -3.2011   -1.8126    2.3716 C   0  0  0  0  0  0  0  0  0  0  0  0
   -4.2281   -2.2852    1.5588 C   0  0  0  0  0  0  0  0  0  0  0  0
   -4.2466   -1.9602    0.2054 C   0  0  0  0  0  0  0  0  0  0  0  0
   -3.2380   -1.1606   -0.3353 C   0  0  0  0  0  0  0  0  0  0  0  0
   -0.0955   -4.3386   -0.6652 H   0  0  0  0  0  0  0  0  0  0  0  0
    0.2074   -4.2640   -2.4097 H   0  0  0  0  0  0  0  0  0  0  0  0
    1.5387   -4.0009   -1.2708 H   0  0  0  0  0  0  0  0  0  0  0  0
   -0.8994   -2.1986   -1.6691 H   0  0  0  0  0  0  0  0  0  0  0  0
    0.7238   -1.8515   -2.2569 H   0  0  0  0  0  0  0  0  0  0  0  0
    0.0412   -2.1964    0.7261 H   0  0  0  0  0  0  0  0  0  0  0  0
    1.6089   -1.8655    0.0396 H   0  0  0  0  0  0  0  0  0  0  0  0
    0.7412    0.1402    1.9098 H   0  0  0  0  0  0  0  0  0  0  0  0
    2.8993    0.3014    2.8531 H   0  0  0  0  0  0  0  0  0  0  0  0
    5.3484    0.4183    2.6050 H   0  0  0  0  0  0  0  0  0  0  0  0
    6.3687    0.7671    0.3848 H   0  0  0  0  0  0  0  0  0  0  0  0
    6.0839    0.6283   -2.0765 H   0  0  0  0  0  0  0  0  0  0  0  0
    4.4766    0.6325   -2.8010 H   0  0  0  0  0  0  0  0  0  0  0  0
    5.1736    2.1543   -2.1911 H   0  0  0  0  0  0  0  0  0  0  0  0
    2.4484    0.8947   -1.3912 H   0  0  0  0  0  0  0  0  0  0  0  0
    0.7902    2.4503   -0.1164 H   0  0  0  0  0  0  0  0  0  0  0  0
    0.5202    2.5440    1.6244 H   0  0  0  0  0  0  0  0  0  0  0  0
   -1.5942    1.5959    1.5133 H   0  0  0  0  0  0  0  0  0  0  0  0
   -3.6259    1.7089    0.1538 H   0  0  0  0  0  0  0  0  0  0  0  0
   -3.5733    3.7302   -2.0149 H   0  0  0  0  0  0  0  0  0  0  0  0
   -4.9892    2.8444   -1.3708 H   0  0  0  0  0  0  0  0  0  0  0  0
   -4.2594    4.1778   -0.4285 H   0  0  0  0  0  0  0  0  0  0  0  0
   -1.3609    0.3421   -1.2227 H   0  0  0  0  0  0  0  0  0  0  0  0
   -1.3985   -0.6635    2.4875 H   0  0  0  0  0  0  0  0  0  0  0  0
   -3.1824   -2.0707    3.4275 H   0  0  0  0  0  0  0  0  0  0  0  0
   -5.0107   -2.9114    1.9793 H   0  0  0  0  0  0  0  0  0  0  0  0
   -5.0442   -2.3333   -0.4323 H   0  0  0  0  0  0  0  0  0  0  0  0
   -3.2710   -0.9226   -1.3973 H   0  0  0  0  0  0  0  0  0  0  0  0
  1  2  1  0
  2  3  1  0
  3  4  1  0
  4  5  1  0
  5  6  1  0
  6  7  2  0
  7  8  1  0
  8  9  2  0
  9 10  1  0
 10 11  1  0
 10 12  2  0
  5 13  1  0
 13 14  1  0
 14 15  1  0
 15 16  2  0
 15 17  1  0
 17 18  1  0
 14 19  1  0
 19 20  1  0
 20 21  2  0
 21 22  1  0
 22 23  2  0
 23 24  1  0
 24 25  2  0
 19  4  1  0
 25 20  1  0
 12  6  1  0
  1 26  1  0
  1 27  1  0
  1 28  1  0
  2 29  1  0
  2 30  1  0
  3 31  1  0
  3 32  1  0
  5 33  1  0
  7 34  1  0
  8 35  1  0
  9 36  1  0
 11 37  1  0
 11 38  1  0
 11 39  1  0
 12 40  1  0
 13 41  1  0
 13 42  1  0
 14 43  1  0
 17 44  1  0
 18 45  1  0
 18 46  1  0
 18 47  1  0
 19 48  1  0
 21 49  1  0
 22 50  1  0
 23 51  1  0
 24 52  1  0
 25 53  1  0
M  END
>  <smiles>  (2) 
CCCN1C(c2cccc(C)c2)CC(C(=O)NC)C1c1ccccc1

>  <mol_id>  (2) 
run14a_mol_4

>  <run_id>  (2) 
run14a

>  <original_index>  (2) 
4

>  <Agent>  (2) 
8.2606

>  <Prior>  (2) 
20.3384

>  <Target>  (2) 
97.7393

>  <Score>  (2) 
0.7871846

>  <SMILES>  (2) 
CCCN1C(c2cccc(C)c2)CC(C(=O)NC)C1c1ccccc1

>  <SMILES_state>  (2) 
1.0

>  <Input_Scaffold>  (2) 
c1ccc([*])cc1C1N([*])C(c2ccccc2)C(C(=O)N[*])C1

>  <R-groups>  (2) 
*C|CCC*|*C

>  <Scaffold>  (2) 
c1ccc(C2CCC(c3ccccc3)N2)cc1

>  <DENV_Activity>  (2) 
0.9470109

>  <DENV_Activity (raw)>  (2) 
7.5913

>  <Stereo_Centers>  (2) 
1e-05

>  <Stereo_Centers (raw)>  (2) 
3.0

>  <QED>  (2) 
0.8848567

>  <QED (raw)>  (2) 
0.8849

>  <SA>  (2) 
0.413515

>  <SA (raw)>  (2) 
3.3354

>  <MW>  (2) 
0.9931601

>  <MW (raw)>  (2) 
336.479

>  <Heavy_Atoms>  (2) 
0.8570375

>  <Heavy_Atoms (raw)>  (2) 
25.0

>  <LogP>  (2) 
0.9686102

>  <LogP (raw)>  (2) 
4.2553

>  <TPSA>  (2) 
0.7105401

>  <TPSA (raw)>  (2) 
32.34

>  <HBA>  (2) 
0.9968477

>  <HBA (raw)>  (2) 
2.0

>  <HBD>  (2) 
0.9467598

>  <HBD (raw)>  (2) 
1.0

>  <Rotatable_Bonds>  (2) 
0.3453354

>  <Rotatable_Bonds (raw)>  (2) 
5.0

>  <Ring_Count>  (2) 
0.8720069

>  <Ring_Count (raw)>  (2) 
3.0

>  <Aromatic_Rings>  (2) 
0.5

>  <Aromatic_Rings (raw)>  (2) 
2.0

>  <Stability_Alerts>  (2) 
1.0

>  <Stability_Alerts (raw)>  (2) 
1.0

>  <matchting_patterns (Stability_Alerts)>  (2) 
[]

>  <step>  (2) 
1.0

$$$$
run14a_mol_4
     RDKit          3D

 53 55  0  0  0  0  0  0  0  0999 V2000
    2.4189    3.6663   -0.7035 C   0  0  0  0  0  0  0  0  0  0  0  0
    2.0496    2.1945   -0.5836 C   0  0  0  0  0  0  0  0  0  0  0  0
    0.6607    2.0193    0.0408 C   0  0  0  0  0  0  0  0  0  0  0  0
    0.1971    0.6222    0.0555 N   0  0  0  0  0  0  0  0  0  0  0  0
    0.9818   -0.2539    0.9557 C   0  0  0  0  0  0  0  0  0  0  0  0
    2.0868   -1.0162    0.2431 C   0  0  0  0  0  0  0  0  0  0  0  0
    1.9274   -1.5090   -1.0604 C   0  0  0  0  0  0  0  0  0  0  0  0
    2.9470   -2.2336   -1.6776 C   0  0  0  0  0  0  0  0  0  0  0  0
    4.1398   -2.4799   -0.9995 C   0  0  0  0  0  0  0  0  0  0  0  0
    4.3271   -1.9961    0.2991 C   0  0  0  0  0  0  0  0  0  0  0  0
    5.5946   -2.2920    1.0447 C   0  0  0  0  0  0  0  0  0  0  0  0
    3.2917   -1.2807    0.9170 C   0  0  0  0  0  0  0  0  0  0  0  0
   -0.0210   -1.2343    1.5819 C   0  0  0  0  0  0  0  0  0  0  0  0
   -1.3447   -0.9556    0.8790 C   0  0  0  0  0  0  0  0  0  0  0  0
   -2.5534   -1.1857    1.7702 C   0  0  0  0  0  0  0  0  0  0  0  0
   -2.4958   -1.1881    2.9960 O   0  0  0  0  0  0  0  0  0  0  0  0
   -3.7319   -1.3693    1.0773 N   0  0  0  0  0  0  0  0  0  0  0  0
   -4.9907   -1.4873    1.7674 C   0  0  0  0  0  0  0  0  0  0  0  0
   -1.2126    0.5198    0.4970 C   0  0  0  0  0  0  0  0  0  0  0  0
   -2.2024    0.9324   -0.5805 C   0  0  0  0  0  0  0  0  0  0  0  0
   -3.2860    1.7623   -0.2506 C   0  0  0  0  0  0  0  0  0  0  0  0
   -4.2275    2.1217   -1.2166 C   0  0  0  0  0  0  0  0  0  0  0  0
   -4.0979    1.6587   -2.5241 C   0  0  0  0  0  0  0  0  0  0  0  0
   -3.0261    0.8382   -2.8682 C   0  0  0  0  0  0  0  0  0  0  0  0
   -2.0849    0.4767   -1.9033 C   0  0  0  0  0  0  0  0  0  0  0  0
    2.4293    4.1489    0.2790 H   0  0  0  0  0  0  0  0  0  0  0  0
    3.4149    3.7719   -1.1449 H   0  0  0  0  0  0  0  0  0  0  0  0
    1.7070    4.1994   -1.3416 H   0  0  0  0  0  0  0  0  0  0  0  0
    2.8129    1.7001    0.0258 H   0  0  0  0  0  0  0  0  0  0  0  0
    2.0736    1.7396   -1.5809 H   0  0  0  0  0  0  0  0  0  0  0  0
   -0.0389    2.6224   -0.5513 H   0  0  0  0  0  0  0  0  0  0  0  0
    0.6550    2.4408    1.0546 H   0  0  0  0  0  0  0  0  0  0  0  0
    1.4218    0.3403    1.7688 H   0  0  0  0  0  0  0  0  0  0  0  0
    1.0045   -1.3253   -1.6044 H   0  0  0  0  0  0  0  0  0  0  0  0
    2.8096   -2.6080   -2.6884 H   0  0  0  0  0  0  0  0  0  0  0  0
    4.9226   -3.0523   -1.4915 H   0  0  0  0  0  0  0  0  0  0  0  0
    5.4893   -3.2257    1.6057 H   0  0  0  0  0  0  0  0  0  0  0  0
    6.4407   -2.3865    0.3559 H   0  0  0  0  0  0  0  0  0  0  0  0
    5.8341   -1.4834    1.7432 H   0  0  0  0  0  0  0  0  0  0  0  0
    3.4263   -0.9237    1.9366 H   0  0  0  0  0  0  0  0  0  0  0  0
    0.2561   -2.2895    1.4734 H   0  0  0  0  0  0  0  0  0  0  0  0
   -0.0871   -1.0328    2.6582 H   0  0  0  0  0  0  0  0  0  0  0  0
   -1.4210   -1.6067   -0.0025 H   0  0  0  0  0  0  0  0  0  0  0  0
   -3.7534   -1.1412    0.0892 H   0  0  0  0  0  0  0  0  0  0  0  0
   -4.8837   -2.1276    2.6470 H   0  0  0  0  0  0  0  0  0  0  0  0
   -5.3125   -0.4902    2.0794 H   0  0  0  0  0  0  0  0  0  0  0  0
   -5.7247   -1.9152    1.0809 H   0  0  0  0  0  0  0  0  0  0  0  0
   -1.3645    1.1434    1.3911 H   0  0  0  0  0  0  0  0  0  0  0  0
   -3.4071    2.1316    0.7660 H   0  0  0  0  0  0  0  0  0  0  0  0
   -5.0606    2.7667   -0.9490 H   0  0  0  0  0  0  0  0  0  0  0  0
   -4.8279    1.9438   -3.2772 H   0  0  0  0  0  0  0  0  0  0  0  0
   -2.9174    0.4846   -3.8903 H   0  0  0  0  0  0  0  0  0  0  0  0
   -1.2469   -0.1556   -2.1897 H   0  0  0  0  0  0  0  0  0  0  0  0
  1  2  1  0
  2  3  1  0
  3  4  1  0
  4  5  1  0
  5  6  1  0
  6  7  2  0
  7  8  1  0
  8  9  2  0
  9 10  1  0
 10 11  1  0
 10 12  2  0
  5 13  1  0
 13 14  1  0
 14 15  1  0
 15 16  2  0
 15 17  1  0
 17 18  1  0
 14 19  1  0
 19 20  1  0
 20 21  2  0
 21 22  1  0
 22 23  2  0
 23 24  1  0
 24 25  2  0
 19  4  1  0
 25 20  1  0
 12  6  1  0
  1 26  1  0
  1 27  1  0
  1 28  1  0
  2 29  1  0
  2 30  1  0
  3 31  1  0
  3 32  1  0
  5 33  1  0
  7 34  1  0
  8 35  1  0
  9 36  1  0
 11 37  1  0
 11 38  1  0
 11 39  1  0
 12 40  1  0
 13 41  1  0
 13 42  1  0
 14 43  1  0
 17 44  1  0
 18 45  1  0
 18 46  1  0
 18 47  1  0
 19 48  1  0
 21 49  1  0
 22 50  1  0
 23 51  1  0
 24 52  1  0
 25 53  1  0
M  END
>  <smiles>  (3) 
CCCN1C(c2cccc(C)c2)CC(C(=O)NC)C1c1ccccc1

>  <mol_id>  (3) 
run14a_mol_4

>  <run_id>  (3) 
run14a

>  <original_index>  (3) 
4

>  <Agent>  (3) 
8.2606

>  <Prior>  (3) 
20.3384

>  <Target>  (3) 
97.7393

>  <Score>  (3) 
0.7871846

>  <SMILES>  (3) 
CCCN1C(c2cccc(C)c2)CC(C(=O)NC)C1c1ccccc1

>  <SMILES_state>  (3) 
1.0

>  <Input_Scaffold>  (3) 
c1ccc([*])cc1C1N([*])C(c2ccccc2)C(C(=O)N[*])C1

>  <R-groups>  (3) 
*C|CCC*|*C

>  <Scaffold>  (3) 
c1ccc(C2CCC(c3ccccc3)N2)cc1

>  <DENV_Activity>  (3) 
0.9470109

>  <DENV_Activity (raw)>  (3) 
7.5913

>  <Stereo_Centers>  (3) 
1e-05

>  <Stereo_Centers (raw)>  (3) 
3.0

>  <QED>  (3) 
0.8848567

>  <QED (raw)>  (3) 
0.8849

>  <SA>  (3) 
0.413515

>  <SA (raw)>  (3) 
3.3354

>  <MW>  (3) 
0.9931601

>  <MW (raw)>  (3) 
336.479

>  <Heavy_Atoms>  (3) 
0.8570375

>  <Heavy_Atoms (raw)>  (3) 
25.0

>  <LogP>  (3) 
0.9686102

>  <LogP (raw)>  (3) 
4.2553

>  <TPSA>  (3) 
0.7105401

>  <TPSA (raw)>  (3) 
32.34

>  <HBA>  (3) 
0.9968477

>  <HBA (raw)>  (3) 
2.0

>  <HBD>  (3) 
0.9467598

>  <HBD (raw)>  (3) 
1.0

>  <Rotatable_Bonds>  (3) 
0.3453354

>  <Rotatable_Bonds (raw)>  (3) 
5.0

>  <Ring_Count>  (3) 
0.8720069

>  <Ring_Count (raw)>  (3) 
3.0

>  <Aromatic_Rings>  (3) 
0.5

>  <Aromatic_Rings (raw)>  (3) 
2.0

>  <Stability_Alerts>  (3) 
1.0

>  <Stability_Alerts (raw)>  (3) 
1.0

>  <matchting_patterns (Stability_Alerts)>  (3) 
[]

>  <step>  (3) 
1.0

$$$$
