run14a_mol_5
     RDKit          3D

 59 61  0  0  0  0  0  0  0  0999 V2000
   -3.3025    4.8472   -0.5239 C   0  0  0  0  0  0  0  0  0  0  0  0
   -3.3210    3.9075    0.6684 C   0  0  0  0  0  0  0  0  0  0  0  0
   -2.2722    2.9124    0.5832 N   0  0  0  0  0  0  0  0  0  0  0  0
   -2.4325    1.7526   -0.1502 C   0  0  0  0  0  0  0  0  0  0  0  0
   -3.4614    1.5055   -0.7705 O   0  0  0  0  0  0  0  0  0  0  0  0
   -1.1853    0.8891   -0.2253 C   0  0  0  0  0  0  0  0  0  0  0  0
   -0.3607    0.7615    1.0564 C   0  0  0  0  0  0  0  0  0  0  0  0
    0.2931   -0.6282    0.9731 C   0  0  0  0  0  0  0  0  0  0  0  0
    1.7944   -0.5292    1.1782 C   0  0  0  0  0  0  0  0  0  0  0  0
    2.3500   -0.8448    2.4254 C   0  0  0  0  0  0  0  0  0  0  0  0
    3.7240   -0.7361    2.6366 C   0  0  0  0  0  0  0  0  0  0  0  0
    4.5607   -0.3072    1.6061 C   0  0  0  0  0  0  0  0  0  0  0  0
    4.0356    0.0207    0.3492 C   0  0  0  0  0  0  0  0  0  0  0  0
    4.9623    0.4799   -0.7622 C   0  0  0  0  0  0  0  0  0  0  0  0
    4.6366    1.9060   -1.2131 C   0  0  0  0  0  0  0  0  0  0  0  0
    4.9379   -0.4867   -1.9491 C   0  0  0  0  0  0  0  0  0  0  0  0
    2.6499   -0.0917    0.1515 C   0  0  0  0  0  0  0  0  0  0  0  0
   -0.0895   -1.1405   -0.3522 N   0  0  0  0  0  0  0  0  0  0  0  0
    0.0660   -2.5852   -0.5019 C   0  0  0  0  0  0  0  0  0  0  0  0
    0.0504   -3.0103   -1.9654 C   0  0  0  0  0  0  0  0  0  0  0  0
   -1.4091   -0.5574   -0.6947 C   0  0  0  0  0  0  0  0  0  0  0  0
   -2.6216   -1.3139   -0.1491 C   0  0  0  0  0  0  0  0  0  0  0  0
   -2.9886   -1.3484    1.2049 C   0  0  0  0  0  0  0  0  0  0  0  0
   -4.1057   -2.0735    1.6336 C   0  0  0  0  0  0  0  0  0  0  0  0
   -4.8811   -2.7763    0.7170 C   0  0  0  0  0  0  0  0  0  0  0  0
   -4.5430   -2.7517   -0.6311 C   0  0  0  0  0  0  0  0  0  0  0  0
   -3.4274   -2.0274   -1.0579 C   0  0  0  0  0  0  0  0  0  0  0  0
   -3.4690    4.3041   -1.4598 H   0  0  0  0  0  0  0  0  0  0  0  0
   -4.0854    5.6051   -0.4241 H   0  0  0  0  0  0  0  0  0  0  0  0
   -2.3372    5.3581   -0.6030 H   0  0  0  0  0  0  0  0  0  0  0  0
   -3.1592    4.4693    1.5937 H   0  0  0  0  0  0  0  0  0  0  0  0
   -4.2917    3.4050    0.7368 H   0  0  0  0  0  0  0  0  0  0  0  0
   -1.3455    3.1765    0.8902 H   0  0  0  0  0  0  0  0  0  0  0  0
   -0.5424    1.3844   -0.9712 H   0  0  0  0  0  0  0  0  0  0  0  0
    0.3695    1.5787    1.1108 H   0  0  0  0  0  0  0  0  0  0  0  0
   -0.9836    0.8416    1.9542 H   0  0  0  0  0  0  0  0  0  0  0  0
   -0.1317   -1.2703    1.7558 H   0  0  0  0  0  0  0  0  0  0  0  0
    1.7156   -1.1812    3.2422 H   0  0  0  0  0  0  0  0  0  0  0  0
    4.1455   -0.9881    3.6062 H   0  0  0  0  0  0  0  0  0  0  0  0
    5.6297   -0.2332    1.7927 H   0  0  0  0  0  0  0  0  0  0  0  0
    5.9906    0.4911   -0.3769 H   0  0  0  0  0  0  0  0  0  0  0  0
    3.6428    1.9755   -1.6687 H   0  0  0  0  0  0  0  0  0  0  0  0
    5.3662    2.2513   -1.9536 H   0  0  0  0  0  0  0  0  0  0  0  0
    4.6645    2.6003   -0.3659 H   0  0  0  0  0  0  0  0  0  0  0  0
    5.6725   -0.1870   -2.7044 H   0  0  0  0  0  0  0  0  0  0  0  0
    5.1827   -1.5057   -1.6291 H   0  0  0  0  0  0  0  0  0  0  0  0
    3.9561   -0.5162   -2.4341 H   0  0  0  0  0  0  0  0  0  0  0  0
    2.2223    0.1544   -0.8192 H   0  0  0  0  0  0  0  0  0  0  0  0
    1.0397   -2.8931   -0.1009 H   0  0  0  0  0  0  0  0  0  0  0  0
   -0.6836   -3.1466    0.0666 H   0  0  0  0  0  0  0  0  0  0  0  0
    0.8282   -2.4881   -2.5331 H   0  0  0  0  0  0  0  0  0  0  0  0
    0.2459   -4.0850   -2.0434 H   0  0  0  0  0  0  0  0  0  0  0  0
   -0.9117   -2.8140   -2.4446 H   0  0  0  0  0  0  0  0  0  0  0  0
   -1.4976   -0.5261   -1.7889 H   0  0  0  0  0  0  0  0  0  0  0  0
   -2.4243   -0.8141    1.9590 H   0  0  0  0  0  0  0  0  0  0  0  0
   -4.3725   -2.0831    2.6872 H   0  0  0  0  0  0  0  0  0  0  0  0
   -5.7512   -3.3340    1.0512 H   0  0  0  0  0  0  0  0  0  0  0  0
   -5.1498   -3.2884   -1.3553 H   0  0  0  0  0  0  0  0  0  0  0  0
   -3.1947   -2.0154   -2.1208 H   0  0  0  0  0  0  0  0  0  0  0  0
  1  2  1  0
  2  3  1  0
  3  4  1  0
  4  5  2  0
  4  6  1  0
  6  7  1  0
  7  8  1  0
  8  9  1  0
  9 10  2  0
 10 11  1  0
 11 12  2  0
 12 13  1  0
 13 14  1  0
 14 15  1  0
 14 16  1  0
 13 17  2  0
  8 18  1  0
 18 19  1  0
 19 20  1  0
 18 21  1  0
 21 22  1  0
 22 23  2  0
 23 24  1  0
 24 25  2  0
 25 26  1  0
 26 27  2  0
 21  6  1  0
 27 22  1  0
 17  9  1  0
  1 28  1  0
  1 29  1  0
  1 30  1  0
  2 31  1  0
  2 32  1  0
  3 33  1  0
  6 34  1  0
  7 35  1  0
  7 36  1  0
  8 37  1  0
 10 38  1  0
 11 39  1  0
 12 40  1  0
 14 41  1  0
 15 42  1  0
 15 43  1  0
 15 44  1  0
 16 45  1  0
 16 46  1  0
 16 47  1  0
 17 48  1  0
 19 49  1  0
 19 50  1  0
 20 51  1  0
 20 52  1  0
 20 53  1  0
 21 54  1  0
 23 55  1  0
 24 56  1  0
 25 57  1  0
 26 58  1  0
 27 59  1  0
M  END
>  <smiles>  (1) 
CCNC(=O)C1CC(c2cccc(C(C)C)c2)N(CC)C1c1ccccc1

>  <mol_id>  (1) 
run14a_mol_5

>  <run_id>  (1) 
run14a

>  <original_index>  (1) 
5

>  <Agent>  (1) 
14.379

>  <Prior>  (1) 
30.8992

>  <Target>  (1) 
80.4525

>  <Score>  (1) 
0.742345

>  <SMILES>  (1) 
CCNC(=O)C1CC(c2cccc(C(C)C)c2)N(CC)C1c1ccccc1

>  <SMILES_state>  (1) 
1.0

>  <Input_Scaffold>  (1) 
c1ccc([*])cc1C1N([*])C(c2ccccc2)C(C(=O)N[*])C1

>  <R-groups>  (1) 
C(*)(C)C|CC*|CC*

>  <Scaffold>  (1) 
c1ccc(C2CCC(c3ccccc3)N2)cc1

>  <DENV_Activity>  (1) 
0.9240177

>  <DENV_Activity (raw)>  (1) 
7.7794

>  <Stereo_Centers>  (1) 
1e-05

>  <Stereo_Centers (raw)>  (1) 
3.0

>  <QED>  (1) 
0.7759399

>  <QED (raw)>  (1) 
0.7759

>  <SA>  (1) 
0.3716515

>  <SA (raw)>  (1) 
3.3783

>  <MW>  (1) 
0.998632

>  <MW (raw)>  (1) 
364.533

>  <Heavy_Atoms>  (1) 
0.9090909

>  <Heavy_Atoms (raw)>  (1) 
27.0

>  <LogP>  (1) 
0.4197636

>  <LogP (raw)>  (1) 
5.0703

>  <TPSA>  (1) 
0.7105401

>  <TPSA (raw)>  (1) 
32.34

>  <HBA>  (1) 
0.9968477

>  <HBA (raw)>  (1) 
2.0

>  <HBD>  (1) 
0.9467598

>  <HBD (raw)>  (1) 
1.0

>  <Rotatable_Bonds>  (1) 
0.1279931

>  <Rotatable_Bonds (raw)>  (1) 
6.0

>  <Ring_Count>  (1) 
0.8720069

>  <Ring_Count (raw)>  (1) 
3.0

>  <Aromatic_Rings>  (1) 
0.5

>  <Aromatic_Rings (raw)>  (1) 
2.0

>  <Stability_Alerts>  (1) 
1.0

>  <Stability_Alerts (raw)>  (1) 
1.0

>  <matchting_patterns (Stability_Alerts)>  (1) 
[]

>  <step>  (1) 
1.0

$$$$
run14a_mol_5
     RDKit          3D

 59 61  0  0  0  0  0  0  0  0999 V2000
   -5.8956   -2.8741   -0.3949 C   0  0  0  0  0  0  0  0  0  0  0  0
   -4.6523   -3.2894    0.3712 C   0  0  0  0  0  0  0  0  0  0  0  0
   -3.4798   -2.5690   -0.0798 N   0  0  0  0  0  0  0  0  0  0  0  0
   -3.1883   -1.2985    0.3791 C   0  0  0  0  0  0  0  0  0  0  0  0
   -3.8585   -0.7303    1.2340 O   0  0  0  0  0  0  0  0  0  0  0  0
   -1.9659   -0.6893   -0.2833 C   0  0  0  0  0  0  0  0  0  0  0  0
   -0.6968   -1.4527    0.0741 C   0  0  0  0  0  0  0  0  0  0  0  0
    0.3850   -0.4120   -0.1878 C   0  0  0  0  0  0  0  0  0  0  0  0
    1.8146   -0.7363    0.1963 C   0  0  0  0  0  0  0  0  0  0  0  0
    2.1754   -1.8997    0.8875 C   0  0  0  0  0  0  0  0  0  0  0  0
    3.5120   -2.1608    1.1941 C   0  0  0  0  0  0  0  0  0  0  0  0
    4.5110   -1.2685    0.8074 C   0  0  0  0  0  0  0  0  0  0  0  0
    4.1891   -0.1016    0.1043 C   0  0  0  0  0  0  0  0  0  0  0  0
    5.2528    0.8912   -0.3288 C   0  0  0  0  0  0  0  0  0  0  0  0
    5.9650    1.5105    0.8763 C   0  0  0  0  0  0  0  0  0  0  0  0
    6.2598    0.2556   -1.2906 C   0  0  0  0  0  0  0  0  0  0  0  0
    2.8402    0.1464   -0.1969 C   0  0  0  0  0  0  0  0  0  0  0  0
   -0.1897    0.8529    0.3144 N   0  0  0  0  0  0  0  0  0  0  0  0
    0.2113    1.3103    1.6517 C   0  0  0  0  0  0  0  0  0  0  0  0
   -0.0755    0.3940    2.8392 C   0  0  0  0  0  0  0  0  0  0  0  0
   -1.6715    0.7509    0.1750 C   0  0  0  0  0  0  0  0  0  0  0  0
   -2.2429    1.7625   -0.8142 C   0  0  0  0  0  0  0  0  0  0  0  0
   -1.4820    2.3186   -1.8545 C   0  0  0  0  0  0  0  0  0  0  0  0
   -2.0538    3.2183   -2.7573 C   0  0  0  0  0  0  0  0  0  0  0  0
   -3.3955    3.5722   -2.6370 C   0  0  0  0  0  0  0  0  0  0  0  0
   -4.1668    3.0281   -1.6134 C   0  0  0  0  0  0  0  0  0  0  0  0
   -3.5959    2.1295   -0.7101 C   0  0  0  0  0  0  0  0  0  0  0  0
   -6.1128   -1.8105   -0.2519 H   0  0  0  0  0  0  0  0  0  0  0  0
   -6.7624   -3.4491   -0.0554 H   0  0  0  0  0  0  0  0  0  0  0  0
   -5.7678   -3.0460   -1.4688 H   0  0  0  0  0  0  0  0  0  0  0  0
   -4.7943   -3.1130    1.4426 H   0  0  0  0  0  0  0  0  0  0  0  0
   -4.4549   -4.3554    0.2213 H   0  0  0  0  0  0  0  0  0  0  0  0
   -2.9957   -2.9160   -0.8978 H   0  0  0  0  0  0  0  0  0  0  0  0
   -2.1149   -0.7290   -1.3718 H   0  0  0  0  0  0  0  0  0  0  0  0
   -0.5698   -2.3421   -0.5536 H   0  0  0  0  0  0  0  0  0  0  0  0
   -0.7219   -1.7858    1.1182 H   0  0  0  0  0  0  0  0  0  0  0  0
    0.4268   -0.3060   -1.2839 H   0  0  0  0  0  0  0  0  0  0  0  0
    1.4274   -2.6203    1.2056 H   0  0  0  0  0  0  0  0  0  0  0  0
    3.7761   -3.0642    1.7380 H   0  0  0  0  0  0  0  0  0  0  0  0
    5.5439   -1.4938    1.0613 H   0  0  0  0  0  0  0  0  0  0  0  0
    4.7650    1.7119   -0.8714 H   0  0  0  0  0  0  0  0  0  0  0  0
    6.5288    0.7644    1.4468 H   0  0  0  0  0  0  0  0  0  0  0  0
    5.2458    1.9783    1.5580 H   0  0  0  0  0  0  0  0  0  0  0  0
    6.6702    2.2831    0.5514 H   0  0  0  0  0  0  0  0  0  0  0  0
    6.9674    1.0068   -1.6582 H   0  0  0  0  0  0  0  0  0  0  0  0
    6.8400   -0.5399   -0.8105 H   0  0  0  0  0  0  0  0  0  0  0  0
    5.7514   -0.1791   -2.1585 H   0  0  0  0  0  0  0  0  0  0  0  0
    2.5685    1.0515   -0.7403 H   0  0  0  0  0  0  0  0  0  0  0  0
    1.2798    1.5536    1.6502 H   0  0  0  0  0  0  0  0  0  0  0  0
   -0.2801    2.2742    1.8406 H   0  0  0  0  0  0  0  0  0  0  0  0
    0.2187    0.8964    3.7671 H   0  0  0  0  0  0  0  0  0  0  0  0
   -1.1373    0.1476    2.9265 H   0  0  0  0  0  0  0  0  0  0  0  0
    0.4898   -0.5386    2.7858 H   0  0  0  0  0  0  0  0  0  0  0  0
   -2.1454    0.9629    1.1405 H   0  0  0  0  0  0  0  0  0  0  0  0
   -0.4314    2.0617   -1.9665 H   0  0  0  0  0  0  0  0  0  0  0  0
   -1.4481    3.6447   -3.5524 H   0  0  0  0  0  0  0  0  0  0  0  0
   -3.8384    4.2742   -3.3381 H   0  0  0  0  0  0  0  0  0  0  0  0
   -5.2135    3.3033   -1.5145 H   0  0  0  0  0  0  0  0  0  0  0  0
   -4.2162    1.7154    0.0839 H   0  0  0  0  0  0  0  0  0  0  0  0
  1  2  1  0
  2  3  1  0
  3  4  1  0
  4  5  2  0
  4  6  1  0
  6  7  1  0
  7  8  1  0
  8  9  1  0
  9 10  2  0
 10 11  1  0
 11 12  2  0
 12 13  1  0
 13 14  1  0
 14 15  1  0
 14 16  1  0
 13 17  2  0
  8 18  1  0
 18 19  1  0
 19 20  1  0
 18 21  1  0
 21 22  1  0
 22 23  2  0
 23 24  1  0
 24 25  2  0
 25 26  1  0
 26 27  2  0
 21  6  1  0
 27 22  1  0
 17  9  1  0
  1 28  1  0
  1 29  1  0
  1 30  1  0
  2 31  1  0
  2 32  1  0
  3 33  1  0
  6 34  1  0
  7 35  1  0
  7 36  1  0
  8 37  1  0
 10 38  1  0
 11 39  1  0
 12 40  1  0
 14 41  1  0
 15 42  1  0
 15 43  1  0
 15 44  1  0
 16 45  1  0
 16 46  1  0
 16 47  1  0
 17 48  1  0
 19 49  1  0
 19 50  1  0
 20 51  1  0
 20 52  1  0
 20 53  1  0
 21 54  1  0
 23 55  1  0
 24 56  1  0
 25 57  1  0
 26 58  1  0
 27 59  1  0
M  END
>  <smiles>  (2) 
CCNC(=O)C1CC(c2cccc(C(C)C)c2)N(CC)C1c1ccccc1

>  <mol_id>  (2) 
run14a_mol_5

>  <run_id>  (2) 
run14a

>  <original_index>  (2) 
5

>  <Agent>  (2) 
14.379

>  <Prior>  (2) 
30.8992

>  <Target>  (2) 
80.4525

>  <Score>  (2) 
0.742345

>  <SMILES>  (2) 
CCNC(=O)C1CC(c2cccc(C(C)C)c2)N(CC)C1c1ccccc1

>  <SMILES_state>  (2) 
1.0

>  <Input_Scaffold>  (2) 
c1ccc([*])cc1C1N([*])C(c2ccccc2)C(C(=O)N[*])C1

>  <R-groups>  (2) 
C(*)(C)C|CC*|CC*

>  <Scaffold>  (2) 
c1ccc(C2CCC(c3ccccc3)N2)cc1

>  <DENV_Activity>  (2) 
0.9240177

>  <DENV_Activity (raw)>  (2) 
7.7794

>  <Stereo_Centers>  (2) 
1e-05

>  <Stereo_Centers (raw)>  (2) 
3.0

>  <QED>  (2) 
0.7759399

>  <QED (raw)>  (2) 
0.7759

>  <SA>  (2) 
0.3716515

>  <SA (raw)>  (2) 
3.3783

>  <MW>  (2) 
0.998632

>  <MW (raw)>  (2) 
364.533

>  <Heavy_Atoms>  (2) 
0.9090909

>  <Heavy_Atoms (raw)>  (2) 
27.0

>  <LogP>  (2) 
0.4197636

>  <LogP (raw)>  (2) 
5.0703

>  <TPSA>  (2) 
0.7105401

>  <TPSA (raw)>  (2) 
32.34

>  <HBA>  (2) 
0.9968477

>  <HBA (raw)>  (2) 
2.0

>  <HBD>  (2) 
0.9467598

>  <HBD (raw)>  (2) 
1.0

>  <Rotatable_Bonds>  (2) 
0.1279931

>  <Rotatable_Bonds (raw)>  (2) 
6.0

>  <Ring_Count>  (2) 
0.8720069

>  <Ring_Count (raw)>  (2) 
3.0

>  <Aromatic_Rings>  (2) 
0.5

>  <Aromatic_Rings (raw)>  (2) 
2.0

>  <Stability_Alerts>  (2) 
1.0

>  <Stability_Alerts (raw)>  (2) 
1.0

>  <matchting_patterns (Stability_Alerts)>  (2) 
[]

>  <step>  (2) 
1.0

$$$$
run14a_mol_5
     RDKit          3D

 59 61  0  0  0  0  0  0  0  0999 V2000
   -4.3587    2.4816    1.8772 C   0  0  0  0  0  0  0  0  0  0  0  0
   -3.1171    3.0334    1.2002 C   0  0  0  0  0  0  0  0  0  0  0  0
   -2.4021    2.0032    0.4817 N   0  0  0  0  0  0  0  0  0  0  0  0
   -2.7457    1.6178   -0.7938 C   0  0  0  0  0  0  0  0  0  0  0  0
   -3.6321    2.1640   -1.4454 O   0  0  0  0  0  0  0  0  0  0  0  0
   -1.9415    0.4535   -1.3595 C   0  0  0  0  0  0  0  0  0  0  0  0
   -0.4434    0.7720   -1.4137 C   0  0  0  0  0  0  0  0  0  0  0  0
    0.2299   -0.2077   -0.4416 C   0  0  0  0  0  0  0  0  0  0  0  0
    1.3811    0.4677    0.2842 C   0  0  0  0  0  0  0  0  0  0  0  0
    1.2231    1.1210    1.5140 C   0  0  0  0  0  0  0  0  0  0  0  0
    2.3040    1.7519    2.1291 C   0  0  0  0  0  0  0  0  0  0  0  0
    3.5588    1.7457    1.5217 C   0  0  0  0  0  0  0  0  0  0  0  0
    3.7512    1.1087    0.2890 C   0  0  0  0  0  0  0  0  0  0  0  0
    5.1062    1.0909   -0.3966 C   0  0  0  0  0  0  0  0  0  0  0  0
    5.5748    2.5039   -0.7525 C   0  0  0  0  0  0  0  0  0  0  0  0
    6.1553    0.3646    0.4491 C   0  0  0  0  0  0  0  0  0  0  0  0
    2.6530    0.4769   -0.3181 C   0  0  0  0  0  0  0  0  0  0  0  0
   -0.8742   -0.6784    0.4104 N   0  0  0  0  0  0  0  0  0  0  0  0
   -0.5428   -1.8653    1.2020 C   0  0  0  0  0  0  0  0  0  0  0  0
   -1.5337   -2.0734    2.3414 C   0  0  0  0  0  0  0  0  0  0  0  0
   -2.0754   -0.7837   -0.4587 C   0  0  0  0  0  0  0  0  0  0  0  0
   -2.2461   -2.0846   -1.2454 C   0  0  0  0  0  0  0  0  0  0  0  0
   -3.2254   -3.0055   -0.8290 C   0  0  0  0  0  0  0  0  0  0  0  0
   -3.4220   -4.2110   -1.5066 C   0  0  0  0  0  0  0  0  0  0  0  0
   -2.6453   -4.5189   -2.6185 C   0  0  0  0  0  0  0  0  0  0  0  0
   -1.6763   -3.6202   -3.0538 C   0  0  0  0  0  0  0  0  0  0  0  0
   -1.4795   -2.4137   -2.3753 C   0  0  0  0  0  0  0  0  0  0  0  0
   -5.0600    2.0705    1.1437 H   0  0  0  0  0  0  0  0  0  0  0  0
   -4.8710    3.2702    2.4365 H   0  0  0  0  0  0  0  0  0  0  0  0
   -4.0984    1.6783    2.5746 H   0  0  0  0  0  0  0  0  0  0  0  0
   -2.4304    3.4443    1.9468 H   0  0  0  0  0  0  0  0  0  0  0  0
   -3.3919    3.8343    0.5058 H   0  0  0  0  0  0  0  0  0  0  0  0
   -1.7652    1.4008    0.9957 H   0  0  0  0  0  0  0  0  0  0  0  0
   -2.3246    0.2775   -2.3726 H   0  0  0  0  0  0  0  0  0  0  0  0
   -0.0581    0.6077   -2.4276 H   0  0  0  0  0  0  0  0  0  0  0  0
   -0.2439    1.8228   -1.1699 H   0  0  0  0  0  0  0  0  0  0  0  0
    0.6362   -1.0583   -1.0047 H   0  0  0  0  0  0  0  0  0  0  0  0
    0.2580    1.1373    2.0118 H   0  0  0  0  0  0  0  0  0  0  0  0
    2.1678    2.2502    3.0853 H   0  0  0  0  0  0  0  0  0  0  0  0
    4.3856    2.2455    2.0208 H   0  0  0  0  0  0  0  0  0  0  0  0
    5.0135    0.5358   -1.3395 H   0  0  0  0  0  0  0  0  0  0  0  0
    5.7507    3.1145    0.1399 H   0  0  0  0  0  0  0  0  0  0  0  0
    4.8298    3.0198   -1.3684 H   0  0  0  0  0  0  0  0  0  0  0  0
    6.5113    2.4673   -1.3197 H   0  0  0  0  0  0  0  0  0  0  0  0
    7.1023    0.2870   -0.0961 H   0  0  0  0  0  0  0  0  0  0  0  0
    6.3563    0.8869    1.3908 H   0  0  0  0  0  0  0  0  0  0  0  0
    5.8256   -0.6511    0.6944 H   0  0  0  0  0  0  0  0  0  0  0  0
    2.7881   -0.0169   -1.2793 H   0  0  0  0  0  0  0  0  0  0  0  0
    0.4410   -1.7380    1.6697 H   0  0  0  0  0  0  0  0  0  0  0  0
   -0.4651   -2.7706    0.5901 H   0  0  0  0  0  0  0  0  0  0  0  0
   -1.2223   -2.9247    2.9557 H   0  0  0  0  0  0  0  0  0  0  0  0
   -1.5745   -1.1915    2.9900 H   0  0  0  0  0  0  0  0  0  0  0  0
   -2.5449   -2.2775    1.9814 H   0  0  0  0  0  0  0  0  0  0  0  0
   -2.9628   -0.6725    0.1786 H   0  0  0  0  0  0  0  0  0  0  0  0
   -3.8533   -2.7884    0.0330 H   0  0  0  0  0  0  0  0  0  0  0  0
   -4.1847   -4.9066   -1.1664 H   0  0  0  0  0  0  0  0  0  0  0  0
   -2.7984   -5.4552   -3.1484 H   0  0  0  0  0  0  0  0  0  0  0  0
   -1.0728   -3.8554   -3.9269 H   0  0  0  0  0  0  0  0  0  0  0  0
   -0.7198   -1.7385   -2.7562 H   0  0  0  0  0  0  0  0  0  0  0  0
  1  2  1  0
  2  3  1  0
  3  4  1  0
  4  5  2  0
  4  6  1  0
  6  7  1  0
  7  8  1  0
  8  9  1  0
  9 10  2  0
 10 11  1  0
 11 12  2  0
 12 13  1  0
 13 14  1  0
 14 15  1  0
 14 16  1  0
 13 17  2  0
  8 18  1  0
 18 19  1  0
 19 20  1  0
 18 21  1  0
 21 22  1  0
 22 23  2  0
 23 24  1  0
 24 25  2  0
 25 26  1  0
 26 27  2  0
 21  6  1  0
 27 22  1  0
 17  9  1  0
  1 28  1  0
  1 29  1  0
  1 30  1  0
  2 31  1  0
  2 32  1  0
  3 33  1  0
  6 34  1  0
  7 35  1  0
  7 36  1  0
  8 37  1  0
 10 38  1  0
 11 39  1  0
 12 40  1  0
 14 41  1  0
 15 42  1  0
 15 43  1  0
 15 44  1  0
 16 45  1  0
 16 46  1  0
 16 47  1  0
 17 48  1  0
 19 49  1  0
 19 50  1  0
 20 51  1  0
 20 52  1  0
 20 53  1  0
 21 54  1  0
 23 55  1  0
 24 56  1  0
 25 57  1  0
 26 58  1  0
 27 59  1  0
M  END
>  <smiles>  (3) 
CCNC(=O)C1CC(c2cccc(C(C)C)c2)N(CC)C1c1ccccc1

>  <mol_id>  (3) 
run14a_mol_5

>  <run_id>  (3) 
run14a

>  <original_index>  (3) 
5

>  <Agent>  (3) 
14.379

>  <Prior>  (3) 
30.8992

>  <Target>  (3) 
80.4525

>  <Score>  (3) 
0.742345

>  <SMILES>  (3) 
CCNC(=O)C1CC(c2cccc(C(C)C)c2)N(CC)C1c1ccccc1

>  <SMILES_state>  (3) 
1.0

>  <Input_Scaffold>  (3) 
c1ccc([*])cc1C1N([*])C(c2ccccc2)C(C(=O)N[*])C1

>  <R-groups>  (3) 
C(*)(C)C|CC*|CC*

>  <Scaffold>  (3) 
c1ccc(C2CCC(c3ccccc3)N2)cc1

>  <DENV_Activity>  (3) 
0.9240177

>  <DENV_Activity (raw)>  (3) 
7.7794

>  <Stereo_Centers>  (3) 
1e-05

>  <Stereo_Centers (raw)>  (3) 
3.0

>  <QED>  (3) 
0.7759399

>  <QED (raw)>  (3) 
0.7759

>  <SA>  (3) 
0.3716515

>  <SA (raw)>  (3) 
3.3783

>  <MW>  (3) 
0.998632

>  <MW (raw)>  (3) 
364.533

>  <Heavy_Atoms>  (3) 
0.9090909

>  <Heavy_Atoms (raw)>  (3) 
27.0

>  <LogP>  (3) 
0.4197636

>  <LogP (raw)>  (3) 
5.0703

>  <TPSA>  (3) 
0.7105401

>  <TPSA (raw)>  (3) 
32.34

>  <HBA>  (3) 
0.9968477

>  <HBA (raw)>  (3) 
2.0

>  <HBD>  (3) 
0.9467598

>  <HBD (raw)>  (3) 
1.0

>  <Rotatable_Bonds>  (3) 
0.1279931

>  <Rotatable_Bonds (raw)>  (3) 
6.0

>  <Ring_Count>  (3) 
0.8720069

>  <Ring_Count (raw)>  (3) 
3.0

>  <Aromatic_Rings>  (3) 
0.5

>  <Aromatic_Rings (raw)>  (3) 
2.0

>  <Stability_Alerts>  (3) 
1.0

>  <Stability_Alerts (raw)>  (3) 
1.0

>  <matchting_patterns (Stability_Alerts)>  (3) 
[]

>  <step>  (3) 
1.0

$$$$
run14a_mol_5
     RDKit          3D

 59 61  0  0  0  0  0  0  0  0999 V2000
   -3.7531    4.9037    0.5883 C   0  0  0  0  0  0  0  0  0  0  0  0
   -3.9413    3.4537    0.9889 C   0  0  0  0  0  0  0  0  0  0  0  0
   -3.0343    2.5852    0.2676 N   0  0  0  0  0  0  0  0  0  0  0  0
   -2.8147    1.2877    0.6945 C   0  0  0  0  0  0  0  0  0  0  0  0
   -3.2665    0.8472    1.7459 O   0  0  0  0  0  0  0  0  0  0  0  0
   -1.9500    0.4822   -0.2620 C   0  0  0  0  0  0  0  0  0  0  0  0
   -0.5142    1.0145   -0.3077 C   0  0  0  0  0  0  0  0  0  0  0  0
    0.3517   -0.1351    0.2152 C   0  0  0  0  0  0  0  0  0  0  0  0
    1.7571   -0.0721   -0.3463 C   0  0  0  0  0  0  0  0  0  0  0  0
    2.0345   -0.4193   -1.6763 C   0  0  0  0  0  0  0  0  0  0  0  0
    3.3329   -0.3376   -2.1761 C   0  0  0  0  0  0  0  0  0  0  0  0
    4.3728    0.0967   -1.3548 C   0  0  0  0  0  0  0  0  0  0  0  0
    4.1287    0.4556   -0.0220 C   0  0  0  0  0  0  0  0  0  0  0  0
    5.2442    0.9304    0.8927 C   0  0  0  0  0  0  0  0  0  0  0  0
    6.3009   -0.1571    1.1015 C   0  0  0  0  0  0  0  0  0  0  0  0
    5.8842    2.2216    0.3768 C   0  0  0  0  0  0  0  0  0  0  0  0
    2.8148    0.3677    0.4679 C   0  0  0  0  0  0  0  0  0  0  0  0
   -0.4203   -1.3243   -0.1792 N   0  0  0  0  0  0  0  0  0  0  0  0
    0.0609   -2.5904    0.3899 C   0  0  0  0  0  0  0  0  0  0  0  0
    0.1545   -2.7005    1.9098 C   0  0  0  0  0  0  0  0  0  0  0  0
   -1.8216   -0.9920    0.1594 C   0  0  0  0  0  0  0  0  0  0  0  0
   -2.8529   -1.8478   -0.5579 C   0  0  0  0  0  0  0  0  0  0  0  0
   -2.6659   -2.2898   -1.8777 C   0  0  0  0  0  0  0  0  0  0  0  0
   -3.6440   -3.0506   -2.5205 C   0  0  0  0  0  0  0  0  0  0  0  0
   -4.8258   -3.3721   -1.8565 C   0  0  0  0  0  0  0  0  0  0  0  0
   -5.0314   -2.9318   -0.5508 C   0  0  0  0  0  0  0  0  0  0  0  0
   -4.0533   -2.1722    0.0936 C   0  0  0  0  0  0  0  0  0  0  0  0
   -2.7319    5.2380    0.7990 H   0  0  0  0  0  0  0  0  0  0  0  0
   -4.4466    5.5461    1.1393 H   0  0  0  0  0  0  0  0  0  0  0  0
   -3.9346    5.0416   -0.4829 H   0  0  0  0  0  0  0  0  0  0  0  0
   -4.9620    3.1247    0.7666 H   0  0  0  0  0  0  0  0  0  0  0  0
   -3.7753    3.3330    2.0649 H   0  0  0  0  0  0  0  0  0  0  0  0
   -2.8739    2.7826   -0.7126 H   0  0  0  0  0  0  0  0  0  0  0  0
   -2.3931    0.5769   -1.2632 H   0  0  0  0  0  0  0  0  0  0  0  0
   -0.3616    1.9188    0.2927 H   0  0  0  0  0  0  0  0  0  0  0  0
   -0.2671    1.2730   -1.3457 H   0  0  0  0  0  0  0  0  0  0  0  0
    0.3862   -0.0552    1.3099 H   0  0  0  0  0  0  0  0  0  0  0  0
    1.2335   -0.7650   -2.3264 H   0  0  0  0  0  0  0  0  0  0  0  0
    3.5347   -0.6157   -3.2070 H   0  0  0  0  0  0  0  0  0  0  0  0
    5.3778    0.1505   -1.7664 H   0  0  0  0  0  0  0  0  0  0  0  0
    4.8158    1.1558    1.8784 H   0  0  0  0  0  0  0  0  0  0  0  0
    5.8452   -1.0777    1.4829 H   0  0  0  0  0  0  0  0  0  0  0  0
    6.8242   -0.4043    0.1714 H   0  0  0  0  0  0  0  0  0  0  0  0
    7.0522    0.1709    1.8281 H   0  0  0  0  0  0  0  0  0  0  0  0
    6.3913    2.0732   -0.5827 H   0  0  0  0  0  0  0  0  0  0  0  0
    5.1298    3.0041    0.2382 H   0  0  0  0  0  0  0  0  0  0  0  0
    6.6267    2.5947    1.0906 H   0  0  0  0  0  0  0  0  0  0  0  0
    2.6109    0.6440    1.5011 H   0  0  0  0  0  0  0  0  0  0  0  0
   -0.5720   -3.4090    0.0262 H   0  0  0  0  0  0  0  0  0  0  0  0
    1.0526   -2.8062   -0.0263 H   0  0  0  0  0  0  0  0  0  0  0  0
   -0.8166   -2.5636    2.3930 H   0  0  0  0  0  0  0  0  0  0  0  0
    0.8609   -1.9787    2.3293 H   0  0  0  0  0  0  0  0  0  0  0  0
    0.5139   -3.6990    2.1820 H   0  0  0  0  0  0  0  0  0  0  0  0
   -1.9637   -1.0971    1.2413 H   0  0  0  0  0  0  0  0  0  0  0  0
   -1.7477   -2.0467   -2.4086 H   0  0  0  0  0  0  0  0  0  0  0  0
   -3.4815   -3.3926   -3.5390 H   0  0  0  0  0  0  0  0  0  0  0  0
   -5.5868   -3.9648   -2.3566 H   0  0  0  0  0  0  0  0  0  0  0  0
   -5.9545   -3.1775   -0.0324 H   0  0  0  0  0  0  0  0  0  0  0  0
   -4.2347   -1.8279    1.1108 H   0  0  0  0  0  0  0  0  0  0  0  0
  1  2  1  0
  2  3  1  0
  3  4  1  0
  4  5  2  0
  4  6  1  0
  6  7  1  0
  7  8  1  0
  8  9  1  0
  9 10  2  0
 10 11  1  0
 11 12  2  0
 12 13  1  0
 13 14  1  0
 14 15  1  0
 14 16  1  0
 13 17  2  0
  8 18  1  0
 18 19  1  0
 19 20  1  0
 18 21  1  0
 21 22  1  0
 22 23  2  0
 23 24  1  0
 24 25  2  0
 25 26  1  0
 26 27  2  0
 21  6  1  0
 27 22  1  0
 17  9  1  0
  1 28  1  0
  1 29  1  0
  1 30  1  0
  2 31  1  0
  2 32  1  0
  3 33  1  0
  6 34  1  0
  7 35  1  0
  7 36  1  0
  8 37  1  0
 10 38  1  0
 11 39  1  0
 12 40  1  0
 14 41  1  0
 15 42  1  0
 15 43  1  0
 15 44  1  0
 16 45  1  0
 16 46  1  0
 16 47  1  0
 17 48  1  0
 19 49  1  0
 19 50  1  0
 20 51  1  0
 20 52  1  0
 20 53  1  0
 21 54  1  0
 23 55  1  0
 24 56  1  0
 25 57  1  0
 26 58  1  0
 27 59  1  0
M  END
>  <smiles>  (4) 
CCNC(=O)C1CC(c2cccc(C(C)C)c2)N(CC)C1c1ccccc1

>  <mol_id>  (4) 
run14a_mol_5

>  <run_id>  (4) 
run14a

>  <original_index>  (4) 
5

>  <Agent>  (4) 
14.379

>  <Prior>  (4) 
30.8992

>  <Target>  (4) 
80.4525

>  <Score>  (4) 
0.742345

>  <SMILES>  (4) 
CCNC(=O)C1CC(c2cccc(C(C)C)c2)N(CC)C1c1ccccc1

>  <SMILES_state>  (4) 
1.0

>  <Input_Scaffold>  (4) 
c1ccc([*])cc1C1N([*])C(c2ccccc2)C(C(=O)N[*])C1

>  <R-groups>  (4) 
C(*)(C)C|CC*|CC*

>  <Scaffold>  (4) 
c1ccc(C2CCC(c3ccccc3)N2)cc1

>  <DENV_Activity>  (4) 
0.9240177

>  <DENV_Activity (raw)>  (4) 
7.7794

>  <Stereo_Centers>  (4) 
1e-05

>  <Stereo_Centers (raw)>  (4) 
3.0

>  <QED>  (4) 
0.7759399

>  <QED (raw)>  (4) 
0.7759

>  <SA>  (4) 
0.3716515

>  <SA (raw)>  (4) 
3.3783

>  <MW>  (4) 
0.998632

>  <MW (raw)>  (4) 
364.533

>  <Heavy_Atoms>  (4) 
0.9090909

>  <Heavy_Atoms (raw)>  (4) 
27.0

>  <LogP>  (4) 
0.4197636

>  <LogP (raw)>  (4) 
5.0703

>  <TPSA>  (4) 
0.7105401

>  <TPSA (raw)>  (4) 
32.34

>  <HBA>  (4) 
0.9968477

>  <HBA (raw)>  (4) 
2.0

>  <HBD>  (4) 
0.9467598

>  <HBD (raw)>  (4) 
1.0

>  <Rotatable_Bonds>  (4) 
0.1279931

>  <Rotatable_Bonds (raw)>  (4) 
6.0

>  <Ring_Count>  (4) 
0.8720069

>  <Ring_Count (raw)>  (4) 
3.0

>  <Aromatic_Rings>  (4) 
0.5

>  <Aromatic_Rings (raw)>  (4) 
2.0

>  <Stability_Alerts>  (4) 
1.0

>  <Stability_Alerts (raw)>  (4) 
1.0

>  <matchting_patterns (Stability_Alerts)>  (4) 
[]

>  <step>  (4) 
1.0

$$$$
run14a_mol_5
     RDKit          3D

 59 61  0  0  0  0  0  0  0  0999 V2000
   -3.9704    4.3075    1.9017 C   0  0  0  0  0  0  0  0  0  0  0  0
   -3.7073    2.8358    2.1536 C   0  0  0  0  0  0  0  0  0  0  0  0
   -3.1130    2.2007    0.9959 N   0  0  0  0  0  0  0  0  0  0  0  0
   -2.5063    0.9627    1.1074 C   0  0  0  0  0  0  0  0  0  0  0  0
   -2.3388    0.3983    2.1833 O   0  0  0  0  0  0  0  0  0  0  0  0
   -2.0637    0.3895   -0.2291 C   0  0  0  0  0  0  0  0  0  0  0  0
   -0.9524    1.2253   -0.8748 C   0  0  0  0  0  0  0  0  0  0  0  0
    0.2120    0.2600   -1.1334 C   0  0  0  0  0  0  0  0  0  0  0  0
    1.3817    0.4696   -0.1757 C   0  0  0  0  0  0  0  0  0  0  0  0
    1.2344    0.5586    1.2152 C   0  0  0  0  0  0  0  0  0  0  0  0
    2.3419    0.7486    2.0432 C   0  0  0  0  0  0  0  0  0  0  0  0
    3.6191    0.8556    1.4974 C   0  0  0  0  0  0  0  0  0  0  0  0
    3.8075    0.7771    0.1131 C   0  0  0  0  0  0  0  0  0  0  0  0
    5.1867    0.8876   -0.5124 C   0  0  0  0  0  0  0  0  0  0  0  0
    5.8328    2.2439   -0.2186 C   0  0  0  0  0  0  0  0  0  0  0  0
    6.0975   -0.2590   -0.0667 C   0  0  0  0  0  0  0  0  0  0  0  0
    2.6819    0.5866   -0.7068 C   0  0  0  0  0  0  0  0  0  0  0  0
   -0.4394   -1.0632   -1.1390 N   0  0  0  0  0  0  0  0  0  0  0  0
    0.4436   -2.2268   -1.0442 C   0  0  0  0  0  0  0  0  0  0  0  0
    1.2473   -2.4332   -2.3230 C   0  0  0  0  0  0  0  0  0  0  0  0
   -1.4931   -1.0310   -0.1063 C   0  0  0  0  0  0  0  0  0  0  0  0
   -2.5974   -2.0592   -0.3187 C   0  0  0  0  0  0  0  0  0  0  0  0
   -3.0386   -2.4258   -1.6010 C   0  0  0  0  0  0  0  0  0  0  0  0
   -4.0718   -3.3506   -1.7629 C   0  0  0  0  0  0  0  0  0  0  0  0
   -4.6842   -3.9149   -0.6461 C   0  0  0  0  0  0  0  0  0  0  0  0
   -4.2657   -3.5539    0.6327 C   0  0  0  0  0  0  0  0  0  0  0  0
   -3.2314   -2.6305    0.7959 C   0  0  0  0  0  0  0  0  0  0  0  0
   -4.6510    4.4452    1.0549 H   0  0  0  0  0  0  0  0  0  0  0  0
   -4.4215    4.7721    2.7837 H   0  0  0  0  0  0  0  0  0  0  0  0
   -3.0400    4.8368    1.6710 H   0  0  0  0  0  0  0  0  0  0  0  0
   -4.6435    2.3121    2.3746 H   0  0  0  0  0  0  0  0  0  0  0  0
   -3.0406    2.7117    3.0137 H   0  0  0  0  0  0  0  0  0  0  0  0
   -3.4646    2.4626    0.0833 H   0  0  0  0  0  0  0  0  0  0  0  0
   -2.9406    0.4084   -0.8922 H   0  0  0  0  0  0  0  0  0  0  0  0
   -1.3262    1.6039   -1.8358 H   0  0  0  0  0  0  0  0  0  0  0  0
   -0.6617    2.1002   -0.2826 H   0  0  0  0  0  0  0  0  0  0  0  0
    0.5749    0.4611   -2.1499 H   0  0  0  0  0  0  0  0  0  0  0  0
    0.2598    0.4815    1.6867 H   0  0  0  0  0  0  0  0  0  0  0  0
    2.2047    0.8111    3.1200 H   0  0  0  0  0  0  0  0  0  0  0  0
    4.4650    1.0000    2.1650 H   0  0  0  0  0  0  0  0  0  0  0  0
    5.0833    0.8113   -1.6030 H   0  0  0  0  0  0  0  0  0  0  0  0
    5.1855    3.0649   -0.5465 H   0  0  0  0  0  0  0  0  0  0  0  0
    6.7873    2.3378   -0.7477 H   0  0  0  0  0  0  0  0  0  0  0  0
    6.0308    2.3812    0.8500 H   0  0  0  0  0  0  0  0  0  0  0  0
    7.0591   -0.2120   -0.5891 H   0  0  0  0  0  0  0  0  0  0  0  0
    6.3017   -0.2257    1.0090 H   0  0  0  0  0  0  0  0  0  0  0  0
    5.6418   -1.2302   -0.2900 H   0  0  0  0  0  0  0  0  0  0  0  0
    2.8213    0.5259   -1.7852 H   0  0  0  0  0  0  0  0  0  0  0  0
    1.1113   -2.1762   -0.1770 H   0  0  0  0  0  0  0  0  0  0  0  0
   -0.1534   -3.1366   -0.9072 H   0  0  0  0  0  0  0  0  0  0  0  0
    1.8436   -3.3483   -2.2446 H   0  0  0  0  0  0  0  0  0  0  0  0
    1.9343   -1.6072   -2.5208 H   0  0  0  0  0  0  0  0  0  0  0  0
    0.5844   -2.5406   -3.1884 H   0  0  0  0  0  0  0  0  0  0  0  0
   -1.0361   -1.2089    0.8748 H   0  0  0  0  0  0  0  0  0  0  0  0
   -2.5698   -1.9939   -2.4828 H   0  0  0  0  0  0  0  0  0  0  0  0
   -4.3966   -3.6304   -2.7613 H   0  0  0  0  0  0  0  0  0  0  0  0
   -5.4880   -4.6351   -0.7720 H   0  0  0  0  0  0  0  0  0  0  0  0
   -4.7447   -3.9893    1.5057 H   0  0  0  0  0  0  0  0  0  0  0  0
   -2.9235   -2.3527    1.8030 H   0  0  0  0  0  0  0  0  0  0  0  0
  1  2  1  0
  2  3  1  0
  3  4  1  0
  4  5  2  0
  4  6  1  0
  6  7  1  0
  7  8  1  0
  8  9  1  0
  9 10  2  0
 10 11  1  0
 11 12  2  0
 12 13  1  0
 13 14  1  0
 14 15  1  0
 14 16  1  0
 13 17  2  0
  8 18  1  0
 18 19  1  0
 19 20  1  0
 18 21  1  0
 21 22  1  0
 22 23  2  0
 23 24  1  0
 24 25  2  0
 25 26  1  0
 26 27  2  0
 21  6  1  0
 27 22  1  0
 17  9  1  0
  1 28  1  0
  1 29  1  0
  1 30  1  0
  2 31  1  0
  2 32  1  0
  3 33  1  0
  6 34  1  0
  7 35  1  0
  7 36  1  0
  8 37  1  0
 10 38  1  0
 11 39  1  0
 12 40  1  0
 14 41  1  0
 15 42  1  0
 15 43  1  0
 15 44  1  0
 16 45  1  0
 16 46  1  0
 16 47  1  0
 17 48  1  0
 19 49  1  0
 19 50  1  0
 20 51  1  0
 20 52  1  0
 20 53  1  0
 21 54  1  0
 23 55  1  0
 24 56  1  0
 25 57  1  0
 26 58  1  0
 27 59  1  0
M  END
>  <smiles>  (5) 
CCNC(=O)C1CC(c2cccc(C(C)C)c2)N(CC)C1c1ccccc1

>  <mol_id>  (5) 
run14a_mol_5

>  <run_id>  (5) 
run14a

>  <original_index>  (5) 
5

>  <Agent>  (5) 
14.379

>  <Prior>  (5) 
30.8992

>  <Target>  (5) 
80.4525

>  <Score>  (5) 
0.742345

>  <SMILES>  (5) 
CCNC(=O)C1CC(c2cccc(C(C)C)c2)N(CC)C1c1ccccc1

>  <SMILES_state>  (5) 
1.0

>  <Input_Scaffold>  (5) 
c1ccc([*])cc1C1N([*])C(c2ccccc2)C(C(=O)N[*])C1

>  <R-groups>  (5) 
C(*)(C)C|CC*|CC*

>  <Scaffold>  (5) 
c1ccc(C2CCC(c3ccccc3)N2)cc1

>  <DENV_Activity>  (5) 
0.9240177

>  <DENV_Activity (raw)>  (5) 
7.7794

>  <Stereo_Centers>  (5) 
1e-05

>  <Stereo_Centers (raw)>  (5) 
3.0

>  <QED>  (5) 
0.7759399

>  <QED (raw)>  (5) 
0.7759

>  <SA>  (5) 
0.3716515

>  <SA (raw)>  (5) 
3.3783

>  <MW>  (5) 
0.998632

>  <MW (raw)>  (5) 
364.533

>  <Heavy_Atoms>  (5) 
0.9090909

>  <Heavy_Atoms (raw)>  (5) 
27.0

>  <LogP>  (5) 
0.4197636

>  <LogP (raw)>  (5) 
5.0703

>  <TPSA>  (5) 
0.7105401

>  <TPSA (raw)>  (5) 
32.34

>  <HBA>  (5) 
0.9968477

>  <HBA (raw)>  (5) 
2.0

>  <HBD>  (5) 
0.9467598

>  <HBD (raw)>  (5) 
1.0

>  <Rotatable_Bonds>  (5) 
0.1279931

>  <Rotatable_Bonds (raw)>  (5) 
6.0

>  <Ring_Count>  (5) 
0.8720069

>  <Ring_Count (raw)>  (5) 
3.0

>  <Aromatic_Rings>  (5) 
0.5

>  <Aromatic_Rings (raw)>  (5) 
2.0

>  <Stability_Alerts>  (5) 
1.0

>  <Stability_Alerts (raw)>  (5) 
1.0

>  <matchting_patterns (Stability_Alerts)>  (5) 
[]

>  <step>  (5) 
1.0

$$$$
run14a_mol_5
     RDKit          3D

 59 61  0  0  0  0  0  0  0  0999 V2000
   -3.5251    2.4930    3.0212 C   0  0  0  0  0  0  0  0  0  0  0  0
   -2.3901    3.1707    2.2746 C   0  0  0  0  0  0  0  0  0  0  0  0
   -1.8327    2.3051    1.2552 N   0  0  0  0  0  0  0  0  0  0  0  0
   -2.4011    2.2034    0.0033 C   0  0  0  0  0  0  0  0  0  0  0  0
   -3.3821    2.8645   -0.3289 O   0  0  0  0  0  0  0  0  0  0  0  0
   -1.7655    1.1963   -0.9430 C   0  0  0  0  0  0  0  0  0  0  0  0
   -0.2578    1.3666   -1.0874 C   0  0  0  0  0  0  0  0  0  0  0  0
    0.3559    0.1206   -0.4404 C   0  0  0  0  0  0  0  0  0  0  0  0
    1.7084   -0.1682   -1.0599 C   0  0  0  0  0  0  0  0  0  0  0  0
    1.8249   -0.7284   -2.3405 C   0  0  0  0  0  0  0  0  0  0  0  0
    3.0783   -0.9659   -2.9010 C   0  0  0  0  0  0  0  0  0  0  0  0
    4.2344   -0.6406   -2.1925 C   0  0  0  0  0  0  0  0  0  0  0  0
    4.1534   -0.0713   -0.9144 C   0  0  0  0  0  0  0  0  0  0  0  0
    5.4265    0.2763   -0.1630 C   0  0  0  0  0  0  0  0  0  0  0  0
    5.5265    1.7792    0.1097 C   0  0  0  0  0  0  0  0  0  0  0  0
    5.5482   -0.5237    1.1364 C   0  0  0  0  0  0  0  0  0  0  0  0
    2.8827    0.1628   -0.3618 C   0  0  0  0  0  0  0  0  0  0  0  0
   -0.6690   -0.9234   -0.6380 N   0  0  0  0  0  0  0  0  0  0  0  0
   -0.5507   -2.0672    0.2848 C   0  0  0  0  0  0  0  0  0  0  0  0
    0.5957   -3.0178   -0.0338 C   0  0  0  0  0  0  0  0  0  0  0  0
   -1.9763   -0.2394   -0.4479 C   0  0  0  0  0  0  0  0  0  0  0  0
   -3.1269   -0.9061   -1.1866 C   0  0  0  0  0  0  0  0  0  0  0  0
   -4.4357   -0.7635   -0.6973 C   0  0  0  0  0  0  0  0  0  0  0  0
   -5.5148   -1.3433   -1.3674 C   0  0  0  0  0  0  0  0  0  0  0  0
   -5.3024   -2.0677   -2.5380 C   0  0  0  0  0  0  0  0  0  0  0  0
   -4.0120   -2.2082   -3.0431 C   0  0  0  0  0  0  0  0  0  0  0  0
   -2.9322   -1.6272   -2.3755 C   0  0  0  0  0  0  0  0  0  0  0  0
   -4.3481    2.2386    2.3453 H   0  0  0  0  0  0  0  0  0  0  0  0
   -3.9148    3.1519    3.8029 H   0  0  0  0  0  0  0  0  0  0  0  0
   -3.1831    1.5651    3.4919 H   0  0  0  0  0  0  0  0  0  0  0  0
   -1.5795    3.4208    2.9661 H   0  0  0  0  0  0  0  0  0  0  0  0
   -2.7441    4.0973    1.8105 H   0  0  0  0  0  0  0  0  0  0  0  0
   -1.0924    1.6754    1.5293 H   0  0  0  0  0  0  0  0  0  0  0  0
   -2.2177    1.3636   -1.9305 H   0  0  0  0  0  0  0  0  0  0  0  0
   -0.0177    1.4231   -2.1577 H   0  0  0  0  0  0  0  0  0  0  0  0
    0.1271    2.2865   -0.6325 H   0  0  0  0  0  0  0  0  0  0  0  0
    0.4758    0.3093    0.6354 H   0  0  0  0  0  0  0  0  0  0  0  0
    0.9310   -0.9895   -2.9036 H   0  0  0  0  0  0  0  0  0  0  0  0
    3.1535   -1.4062   -3.8917 H   0  0  0  0  0  0  0  0  0  0  0  0
    5.2020   -0.8355   -2.6495 H   0  0  0  0  0  0  0  0  0  0  0  0
    6.2868    0.0052   -0.7894 H   0  0  0  0  0  0  0  0  0  0  0  0
    6.4876    2.0224    0.5756 H   0  0  0  0  0  0  0  0  0  0  0  0
    5.4508    2.3518   -0.8214 H   0  0  0  0  0  0  0  0  0  0  0  0
    4.7344    2.1280    0.7812 H   0  0  0  0  0  0  0  0  0  0  0  0
    6.5096   -0.3245    1.6221 H   0  0  0  0  0  0  0  0  0  0  0  0
    4.7568   -0.2699    1.8500 H   0  0  0  0  0  0  0  0  0  0  0  0
    5.4881   -1.6001    0.9404 H   0  0  0  0  0  0  0  0  0  0  0  0
    2.8058    0.6074    0.6281 H   0  0  0  0  0  0  0  0  0  0  0  0
   -0.4682   -1.7291    1.3257 H   0  0  0  0  0  0  0  0  0  0  0  0
   -1.4671   -2.6684    0.2280 H   0  0  0  0  0  0  0  0  0  0  0  0
    0.5818   -3.3195   -1.0861 H   0  0  0  0  0  0  0  0  0  0  0  0
    0.5011   -3.9262    0.5711 H   0  0  0  0  0  0  0  0  0  0  0  0
    1.5691   -2.5795    0.1990 H   0  0  0  0  0  0  0  0  0  0  0  0
   -2.2200   -0.2404    0.6243 H   0  0  0  0  0  0  0  0  0  0  0  0
   -4.6270   -0.1879    0.2061 H   0  0  0  0  0  0  0  0  0  0  0  0
   -6.5226   -1.2219   -0.9790 H   0  0  0  0  0  0  0  0  0  0  0  0
   -6.1429   -2.5161   -3.0606 H   0  0  0  0  0  0  0  0  0  0  0  0
   -3.8441   -2.7668   -3.9600 H   0  0  0  0  0  0  0  0  0  0  0  0
   -1.9323   -1.7418   -2.7889 H   0  0  0  0  0  0  0  0  0  0  0  0
  1  2  1  0
  2  3  1  0
  3  4  1  0
  4  5  2  0
  4  6  1  0
  6  7  1  0
  7  8  1  0
  8  9  1  0
  9 10  2  0
 10 11  1  0
 11 12  2  0
 12 13  1  0
 13 14  1  0
 14 15  1  0
 14 16  1  0
 13 17  2  0
  8 18  1  0
 18 19  1  0
 19 20  1  0
 18 21  1  0
 21 22  1  0
 22 23  2  0
 23 24  1  0
 24 25  2  0
 25 26  1  0
 26 27  2  0
 21  6  1  0
 27 22  1  0
 17  9  1  0
  1 28  1  0
  1 29  1  0
  1 30  1  0
  2 31  1  0
  2 32  1  0
  3 33  1  0
  6 34  1  0
  7 35  1  0
  7 36  1  0
  8 37  1  0
 10 38  1  0
 11 39  1  0
 12 40  1  0
 14 41  1  0
 15 42  1  0
 15 43  1  0
 15 44  1  0
 16 45  1  0
 16 46  1  0
 16 47  1  0
 17 48  1  0
 19 49  1  0
 19 50  1  0
 20 51  1  0
 20 52  1  0
 20 53  1  0
 21 54  1  0
 23 55  1  0
 24 56  1  0
 25 57  1  0
 26 58  1  0
 27 59  1  0
M  END
>  <smiles>  (6) 
CCNC(=O)C1CC(c2cccc(C(C)C)c2)N(CC)C1c1ccccc1

>  <mol_id>  (6) 
run14a_mol_5

>  <run_id>  (6) 
run14a

>  <original_index>  (6) 
5

>  <Agent>  (6) 
14.379

>  <Prior>  (6) 
30.8992

>  <Target>  (6) 
80.4525

>  <Score>  (6) 
0.742345

>  <SMILES>  (6) 
CCNC(=O)C1CC(c2cccc(C(C)C)c2)N(CC)C1c1ccccc1

>  <SMILES_state>  (6) 
1.0

>  <Input_Scaffold>  (6) 
c1ccc([*])cc1C1N([*])C(c2ccccc2)C(C(=O)N[*])C1

>  <R-groups>  (6) 
C(*)(C)C|CC*|CC*

>  <Scaffold>  (6) 
c1ccc(C2CCC(c3ccccc3)N2)cc1

>  <DENV_Activity>  (6) 
0.9240177

>  <DENV_Activity (raw)>  (6) 
7.7794

>  <Stereo_Centers>  (6) 
1e-05

>  <Stereo_Centers (raw)>  (6) 
3.0

>  <QED>  (6) 
0.7759399

>  <QED (raw)>  (6) 
0.7759

>  <SA>  (6) 
0.3716515

>  <SA (raw)>  (6) 
3.3783

>  <MW>  (6) 
0.998632

>  <MW (raw)>  (6) 
364.533

>  <Heavy_Atoms>  (6) 
0.9090909

>  <Heavy_Atoms (raw)>  (6) 
27.0

>  <LogP>  (6) 
0.4197636

>  <LogP (raw)>  (6) 
5.0703

>  <TPSA>  (6) 
0.7105401

>  <TPSA (raw)>  (6) 
32.34

>  <HBA>  (6) 
0.9968477

>  <HBA (raw)>  (6) 
2.0

>  <HBD>  (6) 
0.9467598

>  <HBD (raw)>  (6) 
1.0

>  <Rotatable_Bonds>  (6) 
0.1279931

>  <Rotatable_Bonds (raw)>  (6) 
6.0

>  <Ring_Count>  (6) 
0.8720069

>  <Ring_Count (raw)>  (6) 
3.0

>  <Aromatic_Rings>  (6) 
0.5

>  <Aromatic_Rings (raw)>  (6) 
2.0

>  <Stability_Alerts>  (6) 
1.0

>  <Stability_Alerts (raw)>  (6) 
1.0

>  <matchting_patterns (Stability_Alerts)>  (6) 
[]

>  <step>  (6) 
1.0

$$$$
run14a_mol_5
     RDKit          3D

 59 61  0  0  0  0  0  0  0  0999 V2000
   -4.0611    4.2921    2.6466 C   0  0  0  0  0  0  0  0  0  0  0  0
   -3.6712    2.8685    2.9934 C   0  0  0  0  0  0  0  0  0  0  0  0
   -3.0178    2.2132    1.8792 N   0  0  0  0  0  0  0  0  0  0  0  0
   -2.8595    0.8384    1.8674 C   0  0  0  0  0  0  0  0  0  0  0  0
   -3.3712    0.1089    2.7101 O   0  0  0  0  0  0  0  0  0  0  0  0
   -2.0547    0.3292    0.6805 C   0  0  0  0  0  0  0  0  0  0  0  0
   -0.6539    0.9197    0.6158 C   0  0  0  0  0  0  0  0  0  0  0  0
    0.1850   -0.1715   -0.0536 C   0  0  0  0  0  0  0  0  0  0  0  0
    1.6546    0.0944    0.2038 C   0  0  0  0  0  0  0  0  0  0  0  0
    2.2190   -0.0614    1.4787 C   0  0  0  0  0  0  0  0  0  0  0  0
    3.5678    0.2119    1.6977 C   0  0  0  0  0  0  0  0  0  0  0  0
    4.3723    0.6508    0.6468 C   0  0  0  0  0  0  0  0  0  0  0  0
    3.8390    0.8227   -0.6382 C   0  0  0  0  0  0  0  0  0  0  0  0
    4.6960    1.2957   -1.7993 C   0  0  0  0  0  0  0  0  0  0  0  0
    5.2642    2.6945   -1.5475 C   0  0  0  0  0  0  0  0  0  0  0  0
    5.8154    0.2999   -2.1129 C   0  0  0  0  0  0  0  0  0  0  0  0
    2.4775    0.5430   -0.8441 C   0  0  0  0  0  0  0  0  0  0  0  0
   -0.3621   -1.4007    0.5304 N   0  0  0  0  0  0  0  0  0  0  0  0
    0.0090   -2.6673   -0.1029 C   0  0  0  0  0  0  0  0  0  0  0  0
    1.4463   -3.1083    0.1490 C   0  0  0  0  0  0  0  0  0  0  0  0
   -1.8268   -1.1955    0.7227 C   0  0  0  0  0  0  0  0  0  0  0  0
   -2.7684   -1.9018   -0.2527 C   0  0  0  0  0  0  0  0  0  0  0  0
   -3.7228   -2.8014    0.2509 C   0  0  0  0  0  0  0  0  0  0  0  0
   -4.6109   -3.4577   -0.6036 C   0  0  0  0  0  0  0  0  0  0  0  0
   -4.5619   -3.2229   -1.9751 C   0  0  0  0  0  0  0  0  0  0  0  0
   -3.6272   -2.3299   -2.4928 C   0  0  0  0  0  0  0  0  0  0  0  0
   -2.7392   -1.6718   -1.6387 C   0  0  0  0  0  0  0  0  0  0  0  0
   -4.7510    4.3123    1.7965 H   0  0  0  0  0  0  0  0  0  0  0  0
   -3.1811    4.8851    2.3759 H   0  0  0  0  0  0  0  0  0  0  0  0
   -4.5502    4.7734    3.4988 H   0  0  0  0  0  0  0  0  0  0  0  0
   -4.5573    2.2923    3.2805 H   0  0  0  0  0  0  0  0  0  0  0  0
   -2.9743    2.8583    3.8382 H   0  0  0  0  0  0  0  0  0  0  0  0
   -2.3963    2.7685    1.3063 H   0  0  0  0  0  0  0  0  0  0  0  0
   -2.5996    0.6331   -0.2231 H   0  0  0  0  0  0  0  0  0  0  0  0
   -0.6338    1.8490    0.0341 H   0  0  0  0  0  0  0  0  0  0  0  0
   -0.2953    1.1648    1.6244 H   0  0  0  0  0  0  0  0  0  0  0  0
   -0.0114   -0.1604   -1.1338 H   0  0  0  0  0  0  0  0  0  0  0  0
    1.6051   -0.4128    2.3060 H   0  0  0  0  0  0  0  0  0  0  0  0
    3.9929    0.0780    2.6888 H   0  0  0  0  0  0  0  0  0  0  0  0
    5.4225    0.8544    0.8414 H   0  0  0  0  0  0  0  0  0  0  0  0
    4.0644    1.3624   -2.6952 H   0  0  0  0  0  0  0  0  0  0  0  0
    5.8073    3.0534   -2.4285 H   0  0  0  0  0  0  0  0  0  0  0  0
    4.4624    3.4100   -1.3336 H   0  0  0  0  0  0  0  0  0  0  0  0
    5.9590    2.7088   -0.7007 H   0  0  0  0  0  0  0  0  0  0  0  0
    6.5310    0.2144   -1.2879 H   0  0  0  0  0  0  0  0  0  0  0  0
    6.3709    0.6134   -3.0034 H   0  0  0  0  0  0  0  0  0  0  0  0
    5.4080   -0.6987   -2.3062 H   0  0  0  0  0  0  0  0  0  0  0  0
    2.0516    0.6718   -1.8374 H   0  0  0  0  0  0  0  0  0  0  0  0
   -0.6184   -3.4679    0.3093 H   0  0  0  0  0  0  0  0  0  0  0  0
   -0.1647   -2.6430   -1.1845 H   0  0  0  0  0  0  0  0  0  0  0  0
    1.6919   -3.0779    1.2153 H   0  0  0  0  0  0  0  0  0  0  0  0
    1.5792   -4.1417   -0.1898 H   0  0  0  0  0  0  0  0  0  0  0  0
    2.1655   -2.4984   -0.4027 H   0  0  0  0  0  0  0  0  0  0  0  0
   -2.0277   -1.5917    1.7253 H   0  0  0  0  0  0  0  0  0  0  0  0
   -3.7841   -2.9927    1.3212 H   0  0  0  0  0  0  0  0  0  0  0  0
   -5.3425   -4.1499   -0.1951 H   0  0  0  0  0  0  0  0  0  0  0  0
   -5.2535   -3.7342   -2.6392 H   0  0  0  0  0  0  0  0  0  0  0  0
   -3.5890   -2.1451   -3.5631 H   0  0  0  0  0  0  0  0  0  0  0  0
   -2.0189   -0.9817   -2.0687 H   0  0  0  0  0  0  0  0  0  0  0  0
  1  2  1  0
  2  3  1  0
  3  4  1  0
  4  5  2  0
  4  6  1  0
  6  7  1  0
  7  8  1  0
  8  9  1  0
  9 10  2  0
 10 11  1  0
 11 12  2  0
 12 13  1  0
 13 14  1  0
 14 15  1  0
 14 16  1  0
 13 17  2  0
  8 18  1  0
 18 19  1  0
 19 20  1  0
 18 21  1  0
 21 22  1  0
 22 23  2  0
 23 24  1  0
 24 25  2  0
 25 26  1  0
 26 27  2  0
 21  6  1  0
 27 22  1  0
 17  9  1  0
  1 28  1  0
  1 29  1  0
  1 30  1  0
  2 31  1  0
  2 32  1  0
  3 33  1  0
  6 34  1  0
  7 35  1  0
  7 36  1  0
  8 37  1  0
 10 38  1  0
 11 39  1  0
 12 40  1  0
 14 41  1  0
 15 42  1  0
 15 43  1  0
 15 44  1  0
 16 45  1  0
 16 46  1  0
 16 47  1  0
 17 48  1  0
 19 49  1  0
 19 50  1  0
 20 51  1  0
 20 52  1  0
 20 53  1  0
 21 54  1  0
 23 55  1  0
 24 56  1  0
 25 57  1  0
 26 58  1  0
 27 59  1  0
M  END
>  <smiles>  (7) 
CCNC(=O)C1CC(c2cccc(C(C)C)c2)N(CC)C1c1ccccc1

>  <mol_id>  (7) 
run14a_mol_5

>  <run_id>  (7) 
run14a

>  <original_index>  (7) 
5

>  <Agent>  (7) 
14.379

>  <Prior>  (7) 
30.8992

>  <Target>  (7) 
80.4525

>  <Score>  (7) 
0.742345

>  <SMILES>  (7) 
CCNC(=O)C1CC(c2cccc(C(C)C)c2)N(CC)C1c1ccccc1

>  <SMILES_state>  (7) 
1.0

>  <Input_Scaffold>  (7) 
c1ccc([*])cc1C1N([*])C(c2ccccc2)C(C(=O)N[*])C1

>  <R-groups>  (7) 
C(*)(C)C|CC*|CC*

>  <Scaffold>  (7) 
c1ccc(C2CCC(c3ccccc3)N2)cc1

>  <DENV_Activity>  (7) 
0.9240177

>  <DENV_Activity (raw)>  (7) 
7.7794

>  <Stereo_Centers>  (7) 
1e-05

>  <Stereo_Centers (raw)>  (7) 
3.0

>  <QED>  (7) 
0.7759399

>  <QED (raw)>  (7) 
0.7759

>  <SA>  (7) 
0.3716515

>  <SA (raw)>  (7) 
3.3783

>  <MW>  (7) 
0.998632

>  <MW (raw)>  (7) 
364.533

>  <Heavy_Atoms>  (7) 
0.9090909

>  <Heavy_Atoms (raw)>  (7) 
27.0

>  <LogP>  (7) 
0.4197636

>  <LogP (raw)>  (7) 
5.0703

>  <TPSA>  (7) 
0.7105401

>  <TPSA (raw)>  (7) 
32.34

>  <HBA>  (7) 
0.9968477

>  <HBA (raw)>  (7) 
2.0

>  <HBD>  (7) 
0.9467598

>  <HBD (raw)>  (7) 
1.0

>  <Rotatable_Bonds>  (7) 
0.1279931

>  <Rotatable_Bonds (raw)>  (7) 
6.0

>  <Ring_Count>  (7) 
0.8720069

>  <Ring_Count (raw)>  (7) 
3.0

>  <Aromatic_Rings>  (7) 
0.5

>  <Aromatic_Rings (raw)>  (7) 
2.0

>  <Stability_Alerts>  (7) 
1.0

>  <Stability_Alerts (raw)>  (7) 
1.0

>  <matchting_patterns (Stability_Alerts)>  (7) 
[]

>  <step>  (7) 
1.0

$$$$
run14a_mol_5
     RDKit          3D

 59 61  0  0  0  0  0  0  0  0999 V2000
   -2.6845   -3.5981   -0.1077 C   0  0  0  0  0  0  0  0  0  0  0  0
   -2.9316   -3.1075    1.3075 C   0  0  0  0  0  0  0  0  0  0  0  0
   -2.6058   -1.7047    1.4481 N   0  0  0  0  0  0  0  0  0  0  0  0
   -1.3189   -1.2713    1.6899 C   0  0  0  0  0  0  0  0  0  0  0  0
   -0.3793   -2.0438    1.8481 O   0  0  0  0  0  0  0  0  0  0  0  0
   -1.1767    0.2421    1.7192 C   0  0  0  0  0  0  0  0  0  0  0  0
    0.1253    0.7383    2.3612 C   0  0  0  0  0  0  0  0  0  0  0  0
    0.7844    1.6714    1.3337 C   0  0  0  0  0  0  0  0  0  0  0  0
    2.0445    1.0839    0.7034 C   0  0  0  0  0  0  0  0  0  0  0  0
    3.1928    1.8868    0.5998 C   0  0  0  0  0  0  0  0  0  0  0  0
    4.3656    1.3985    0.0235 C   0  0  0  0  0  0  0  0  0  0  0  0
    4.4169    0.0925   -0.4570 C   0  0  0  0  0  0  0  0  0  0  0  0
    3.2968   -0.7419   -0.3634 C   0  0  0  0  0  0  0  0  0  0  0  0
    3.3239   -2.1758   -0.8644 C   0  0  0  0  0  0  0  0  0  0  0  0
    4.3480   -3.0187   -0.1007 C   0  0  0  0  0  0  0  0  0  0  0  0
    3.5795   -2.2393   -2.3723 C   0  0  0  0  0  0  0  0  0  0  0  0
    2.1219   -0.2323    0.2181 C   0  0  0  0  0  0  0  0  0  0  0  0
   -0.3286    2.0179    0.4250 N   0  0  0  0  0  0  0  0  0  0  0  0
    0.0345    2.6431   -0.8467 C   0  0  0  0  0  0  0  0  0  0  0  0
    0.5146    4.0770   -0.6534 C   0  0  0  0  0  0  0  0  0  0  0  0
   -1.1607    0.8117    0.2915 C   0  0  0  0  0  0  0  0  0  0  0  0
   -2.5681    1.1052   -0.2114 C   0  0  0  0  0  0  0  0  0  0  0  0
   -3.3597    2.1136    0.3619 C   0  0  0  0  0  0  0  0  0  0  0  0
   -4.6582    2.3455   -0.0937 C   0  0  0  0  0  0  0  0  0  0  0  0
   -5.1824    1.5744   -1.1287 C   0  0  0  0  0  0  0  0  0  0  0  0
   -4.4077    0.5748   -1.7128 C   0  0  0  0  0  0  0  0  0  0  0  0
   -3.1082    0.3424   -1.2594 C   0  0  0  0  0  0  0  0  0  0  0  0
   -2.9511   -4.6556   -0.1969 H   0  0  0  0  0  0  0  0  0  0  0  0
   -1.6323   -3.4845   -0.3885 H   0  0  0  0  0  0  0  0  0  0  0  0
   -3.2839   -3.0311   -0.8276 H   0  0  0  0  0  0  0  0  0  0  0  0
   -2.3353   -3.6905    2.0171 H   0  0  0  0  0  0  0  0  0  0  0  0
   -3.9881   -3.2238    1.5687 H   0  0  0  0  0  0  0  0  0  0  0  0
   -3.3296   -1.0233    1.2461 H   0  0  0  0  0  0  0  0  0  0  0  0
   -2.0096    0.6367    2.3178 H   0  0  0  0  0  0  0  0  0  0  0  0
   -0.1413    1.3233    3.2522 H   0  0  0  0  0  0  0  0  0  0  0  0
    0.7866   -0.0616    2.7091 H   0  0  0  0  0  0  0  0  0  0  0  0
    1.0782    2.5830    1.8707 H   0  0  0  0  0  0  0  0  0  0  0  0
    3.1840    2.9087    0.9727 H   0  0  0  0  0  0  0  0  0  0  0  0
    5.2419    2.0373   -0.0477 H   0  0  0  0  0  0  0  0  0  0  0  0
    5.3414   -0.2701   -0.8992 H   0  0  0  0  0  0  0  0  0  0  0  0
    2.3391   -2.6281   -0.6868 H   0  0  0  0  0  0  0  0  0  0  0  0
    4.2960   -4.0664   -0.4163 H   0  0  0  0  0  0  0  0  0  0  0  0
    5.3730   -2.6713   -0.2699 H   0  0  0  0  0  0  0  0  0  0  0  0
    4.1574   -2.9837    0.9778 H   0  0  0  0  0  0  0  0  0  0  0  0
    2.8391   -1.6455   -2.9199 H   0  0  0  0  0  0  0  0  0  0  0  0
    4.5728   -1.8602   -2.6362 H   0  0  0  0  0  0  0  0  0  0  0  0
    3.5122   -3.2722   -2.7307 H   0  0  0  0  0  0  0  0  0  0  0  0
    1.2624   -0.8913    0.2987 H   0  0  0  0  0  0  0  0  0  0  0  0
   -0.8453    2.7044   -1.4984 H   0  0  0  0  0  0  0  0  0  0  0  0
    0.7756    2.0603   -1.4046 H   0  0  0  0  0  0  0  0  0  0  0  0
   -0.2519    4.6816   -0.1564 H   0  0  0  0  0  0  0  0  0  0  0  0
    0.7209    4.5353   -1.6263 H   0  0  0  0  0  0  0  0  0  0  0  0
    1.4296    4.1348   -0.0598 H   0  0  0  0  0  0  0  0  0  0  0  0
   -0.6817    0.1049   -0.3989 H   0  0  0  0  0  0  0  0  0  0  0  0
   -2.9579    2.7323    1.1624 H   0  0  0  0  0  0  0  0  0  0  0  0
   -5.2571    3.1337    0.3553 H   0  0  0  0  0  0  0  0  0  0  0  0
   -6.1921    1.7593   -1.4862 H   0  0  0  0  0  0  0  0  0  0  0  0
   -4.8135   -0.0208   -2.5266 H   0  0  0  0  0  0  0  0  0  0  0  0
   -2.5179   -0.4413   -1.7306 H   0  0  0  0  0  0  0  0  0  0  0  0
  1  2  1  0
  2  3  1  0
  3  4  1  0
  4  5  2  0
  4  6  1  0
  6  7  1  0
  7  8  1  0
  8  9  1  0
  9 10  2  0
 10 11  1  0
 11 12  2  0
 12 13  1  0
 13 14  1  0
 14 15  1  0
 14 16  1  0
 13 17  2  0
  8 18  1  0
 18 19  1  0
 19 20  1  0
 18 21  1  0
 21 22  1  0
 22 23  2  0
 23 24  1  0
 24 25  2  0
 25 26  1  0
 26 27  2  0
 21  6  1  0
 27 22  1  0
 17  9  1  0
  1 28  1  0
  1 29  1  0
  1 30  1  0
  2 31  1  0
  2 32  1  0
  3 33  1  0
  6 34  1  0
  7 35  1  0
  7 36  1  0
  8 37  1  0
 10 38  1  0
 11 39  1  0
 12 40  1  0
 14 41  1  0
 15 42  1  0
 15 43  1  0
 15 44  1  0
 16 45  1  0
 16 46  1  0
 16 47  1  0
 17 48  1  0
 19 49  1  0
 19 50  1  0
 20 51  1  0
 20 52  1  0
 20 53  1  0
 21 54  1  0
 23 55  1  0
 24 56  1  0
 25 57  1  0
 26 58  1  0
 27 59  1  0
M  END
>  <smiles>  (8) 
CCNC(=O)C1CC(c2cccc(C(C)C)c2)N(CC)C1c1ccccc1

>  <mol_id>  (8) 
run14a_mol_5

>  <run_id>  (8) 
run14a

>  <original_index>  (8) 
5

>  <Agent>  (8) 
14.379

>  <Prior>  (8) 
30.8992

>  <Target>  (8) 
80.4525

>  <Score>  (8) 
0.742345

>  <SMILES>  (8) 
CCNC(=O)C1CC(c2cccc(C(C)C)c2)N(CC)C1c1ccccc1

>  <SMILES_state>  (8) 
1.0

>  <Input_Scaffold>  (8) 
c1ccc([*])cc1C1N([*])C(c2ccccc2)C(C(=O)N[*])C1

>  <R-groups>  (8) 
C(*)(C)C|CC*|CC*

>  <Scaffold>  (8) 
c1ccc(C2CCC(c3ccccc3)N2)cc1

>  <DENV_Activity>  (8) 
0.9240177

>  <DENV_Activity (raw)>  (8) 
7.7794

>  <Stereo_Centers>  (8) 
1e-05

>  <Stereo_Centers (raw)>  (8) 
3.0

>  <QED>  (8) 
0.7759399

>  <QED (raw)>  (8) 
0.7759

>  <SA>  (8) 
0.3716515

>  <SA (raw)>  (8) 
3.3783

>  <MW>  (8) 
0.998632

>  <MW (raw)>  (8) 
364.533

>  <Heavy_Atoms>  (8) 
0.9090909

>  <Heavy_Atoms (raw)>  (8) 
27.0

>  <LogP>  (8) 
0.4197636

>  <LogP (raw)>  (8) 
5.0703

>  <TPSA>  (8) 
0.7105401

>  <TPSA (raw)>  (8) 
32.34

>  <HBA>  (8) 
0.9968477

>  <HBA (raw)>  (8) 
2.0

>  <HBD>  (8) 
0.9467598

>  <HBD (raw)>  (8) 
1.0

>  <Rotatable_Bonds>  (8) 
0.1279931

>  <Rotatable_Bonds (raw)>  (8) 
6.0

>  <Ring_Count>  (8) 
0.8720069

>  <Ring_Count (raw)>  (8) 
3.0

>  <Aromatic_Rings>  (8) 
0.5

>  <Aromatic_Rings (raw)>  (8) 
2.0

>  <Stability_Alerts>  (8) 
1.0

>  <Stability_Alerts (raw)>  (8) 
1.0

>  <matchting_patterns (Stability_Alerts)>  (8) 
[]

>  <step>  (8) 
1.0

$$$$
