run14a_mol_7
     RDKit          3D

 67 71  0  0  0  0  0  0  0  0999 V2000
   -2.0806    1.8082    4.8734 C   0  0  0  0  0  0  0  0  0  0  0  0
   -1.9055    2.4439    3.5258 C   0  0  0  0  0  0  0  0  0  0  0  0
   -2.0270    3.8280    3.3727 C   0  0  0  0  0  0  0  0  0  0  0  0
   -1.9029    4.4094    2.1127 C   0  0  0  0  0  0  0  0  0  0  0  0
   -1.6658    3.6104    0.9938 C   0  0  0  0  0  0  0  0  0  0  0  0
   -1.5541    2.2146    1.1150 C   0  0  0  0  0  0  0  0  0  0  0  0
   -1.2790    1.3905   -0.1368 C   0  0  0  0  0  0  0  0  0  0  0  0
    0.2245    1.4085   -0.4756 C   0  0  0  0  0  0  0  0  0  0  0  0
    0.7404    0.1647    0.2359 C   0  0  0  0  0  0  0  0  0  0  0  0
    2.1385   -0.2981   -0.1023 C   0  0  0  0  0  0  0  0  0  0  0  0
    2.8699   -0.7423    0.7748 O   0  0  0  0  0  0  0  0  0  0  0  0
    2.5442   -0.2121   -1.4412 N   0  0  0  0  0  0  0  0  0  0  0  0
    3.9522   -0.8552   -2.0517 S   0  0  0  0  0  0  0  0  0  0  0  0
    3.8807   -0.6388   -3.4831 O   0  0  0  0  0  0  0  0  0  0  0  0
    4.1657   -2.1794   -1.5135 O   0  0  0  0  0  0  0  0  0  0  0  0
    5.1903    0.2440   -1.4129 C   0  0  0  0  0  0  0  0  0  0  0  0
    5.8398   -0.0671   -0.2153 C   0  0  0  0  0  0  0  0  0  0  0  0
    6.8291    0.7868    0.2720 C   0  0  0  0  0  0  0  0  0  0  0  0
    7.1740    1.9360   -0.4414 C   0  0  0  0  0  0  0  0  0  0  0  0
    6.5347    2.2345   -1.6461 C   0  0  0  0  0  0  0  0  0  0  0  0
    5.5427    1.3863   -2.1390 C   0  0  0  0  0  0  0  0  0  0  0  0
   -0.3696   -0.8752    0.0055 C   0  0  0  0  0  0  0  0  0  0  0  0
   -0.1956   -1.6864   -1.2757 C   0  0  0  0  0  0  0  0  0  0  0  0
    0.5721   -2.8644   -1.2342 C   0  0  0  0  0  0  0  0  0  0  0  0
    0.8207   -3.5988   -2.3947 C   0  0  0  0  0  0  0  0  0  0  0  0
    0.2949   -3.1781   -3.6126 C   0  0  0  0  0  0  0  0  0  0  0  0
   -0.4846   -2.0264   -3.6709 C   0  0  0  0  0  0  0  0  0  0  0  0
   -0.7274   -1.2856   -2.5127 C   0  0  0  0  0  0  0  0  0  0  0  0
   -1.5995   -0.0465   -0.0075 N   0  0  0  0  0  0  0  0  0  0  0  0
   -2.8849   -0.5541    0.0610 C   0  0  0  0  0  0  0  0  0  0  0  0
   -4.0187    0.2682   -0.0449 C   0  0  0  0  0  0  0  0  0  0  0  0
   -5.3217   -0.2405    0.0182 C   0  0  0  0  0  0  0  0  0  0  0  0
   -5.5331   -1.6018    0.1935 C   0  0  0  0  0  0  0  0  0  0  0  0
   -4.4410   -2.4571    0.3195 C   0  0  0  0  0  0  0  0  0  0  0  0
   -4.6432   -3.9357    0.4734 C   0  0  0  0  0  0  0  0  0  0  0  0
   -3.1396   -1.9259    0.2422 C   0  0  0  0  0  0  0  0  0  0  0  0
   -1.6801    1.6472    2.3940 C   0  0  0  0  0  0  0  0  0  0  0  0
   -3.1292    1.5337    5.0240 H   0  0  0  0  0  0  0  0  0  0  0  0
   -1.7761    2.4928    5.6720 H   0  0  0  0  0  0  0  0  0  0  0  0
   -1.4617    0.9092    4.9636 H   0  0  0  0  0  0  0  0  0  0  0  0
   -2.2222    4.4609    4.2353 H   0  0  0  0  0  0  0  0  0  0  0  0
   -1.9957    5.4868    2.0023 H   0  0  0  0  0  0  0  0  0  0  0  0
   -1.5739    4.0871    0.0201 H   0  0  0  0  0  0  0  0  0  0  0  0
   -1.8311    1.8233   -0.9813 H   0  0  0  0  0  0  0  0  0  0  0  0
    0.3529    1.3369   -1.5611 H   0  0  0  0  0  0  0  0  0  0  0  0
    0.7454    2.3156   -0.1507 H   0  0  0  0  0  0  0  0  0  0  0  0
    0.7663    0.3988    1.3110 H   0  0  0  0  0  0  0  0  0  0  0  0
    1.9032    0.0495   -2.1834 H   0  0  0  0  0  0  0  0  0  0  0  0
    5.5752   -0.9632    0.3434 H   0  0  0  0  0  0  0  0  0  0  0  0
    7.3330    0.5541    1.2071 H   0  0  0  0  0  0  0  0  0  0  0  0
    7.9487    2.5971   -0.0600 H   0  0  0  0  0  0  0  0  0  0  0  0
    6.8161    3.1248   -2.2032 H   0  0  0  0  0  0  0  0  0  0  0  0
    5.0588    1.6175   -3.0850 H   0  0  0  0  0  0  0  0  0  0  0  0
   -0.3912   -1.5571    0.8659 H   0  0  0  0  0  0  0  0  0  0  0  0
    1.0092   -3.2109   -0.2983 H   0  0  0  0  0  0  0  0  0  0  0  0
    1.4360   -4.4944   -2.3478 H   0  0  0  0  0  0  0  0  0  0  0  0
    0.4909   -3.7508   -4.5155 H   0  0  0  0  0  0  0  0  0  0  0  0
   -0.9083   -1.7064   -4.6195 H   0  0  0  0  0  0  0  0  0  0  0  0
   -1.3526   -0.3987   -2.5863 H   0  0  0  0  0  0  0  0  0  0  0  0
   -3.9204    1.3411   -0.1788 H   0  0  0  0  0  0  0  0  0  0  0  0
   -6.1686    0.4344   -0.0712 H   0  0  0  0  0  0  0  0  0  0  0  0
   -6.5484   -1.9876    0.2326 H   0  0  0  0  0  0  0  0  0  0  0  0
   -3.8665   -4.3699    1.1117 H   0  0  0  0  0  0  0  0  0  0  0  0
   -4.6110   -4.4213   -0.5067 H   0  0  0  0  0  0  0  0  0  0  0  0
   -5.6080   -4.1537    0.9431 H   0  0  0  0  0  0  0  0  0  0  0  0
   -2.3154   -2.6287    0.3255 H   0  0  0  0  0  0  0  0  0  0  0  0
   -1.6155    0.5674    2.5158 H   0  0  0  0  0  0  0  0  0  0  0  0
  1  2  1  0
  2  3  2  0
  3  4  1  0
  4  5  2  0
  5  6  1  0
  6  7  1  0
  7  8  1  0
  8  9  1  0
  9 10  1  0
 10 11  2  0
 10 12  1  0
 12 13  1  0
 13 14  2  0
 13 15  2  0
 13 16  1  0
 16 17  2  0
 17 18  1  0
 18 19  2  0
 19 20  1  0
 20 21  2  0
  9 22  1  0
 22 23  1  0
 23 24  2  0
 24 25  1  0
 25 26  2  0
 26 27  1  0
 27 28  2  0
 22 29  1  0
 29 30  1  0
 30 31  2  0
 31 32  1  0
 32 33  2  0
 33 34  1  0
 34 35  1  0
 34 36  2  0
  6 37  2  0
 37  2  1  0
 29  7  1  0
 36 30  1  0
 21 16  1  0
 28 23  1  0
  1 38  1  0
  1 39  1  0
  1 40  1  0
  3 41  1  0
  4 42  1  0
  5 43  1  0
  7 44  1  0
  8 45  1  0
  8 46  1  0
  9 47  1  0
 12 48  1  0
 17 49  1  0
 18 50  1  0
 19 51  1  0
 20 52  1  0
 21 53  1  0
 22 54  1  0
 24 55  1  0
 25 56  1  0
 26 57  1  0
 27 58  1  0
 28 59  1  0
 31 60  1  0
 32 61  1  0
 33 62  1  0
 35 63  1  0
 35 64  1  0
 35 65  1  0
 36 66  1  0
 37 67  1  0
M  END
>  <smiles>  (1) 
Cc1cccc(C2CC(C(=O)NS(=O)(=O)c3ccccc3)C(c3ccccc3)N2c2cccc(C)c2)c1

>  <mol_id>  (1) 
run14a_mol_7

>  <run_id>  (1) 
run14a

>  <original_index>  (1) 
7

>  <Agent>  (1) 
10.6627

>  <Prior>  (1) 
21.8967

>  <Target>  (1) 
80.0669

>  <Score>  (1) 
0.6797573

>  <SMILES>  (1) 
Cc1cccc(C2CC(C(=O)NS(=O)(=O)c3ccccc3)C(c3ccccc3)N2c2cccc(C)c2)c1

>  <SMILES_state>  (1) 
1.0

>  <Input_Scaffold>  (1) 
c1ccc([*])cc1C1N([*])C(c2ccccc2)C(C(=O)N[*])C1

>  <R-groups>  (1) 
C*|c1ccc(C)cc1*|c1ccccc1S(*)(=O)=O

>  <Scaffold>  (1) 
O=C(NS(=O)(=O)c1ccccc1)C1CC(c2ccccc2)N(c2ccccc2)C1c1ccccc1

>  <DENV_Activity>  (1) 
0.947844

>  <DENV_Activity (raw)>  (1) 
7.5831

>  <Stereo_Centers>  (1) 
1e-05

>  <Stereo_Centers (raw)>  (1) 
3.0

>  <QED>  (1) 
0.339514

>  <QED (raw)>  (1) 
0.3395

>  <SA>  (1) 
0.3613592

>  <SA (raw)>  (1) 
3.3891

>  <MW>  (1) 
0.9941931

>  <MW (raw)>  (1) 
510.659

>  <Heavy_Atoms>  (1) 
0.885618

>  <Heavy_Atoms (raw)>  (1) 
37.0

>  <LogP>  (1) 
0.0057889

>  <LogP (raw)>  (1) 
6.1174

>  <TPSA>  (1) 
0.9999992

>  <TPSA (raw)>  (1) 
66.48

>  <HBA>  (1) 
0.8720069

>  <HBA (raw)>  (1) 
4.0

>  <HBD>  (1) 
0.9467598

>  <HBD (raw)>  (1) 
1.0

>  <Rotatable_Bonds>  (1) 
0.1279931

>  <Rotatable_Bonds (raw)>  (1) 
6.0

>  <Ring_Count>  (1) 
0.0031523

>  <Ring_Count (raw)>  (1) 
5.0

>  <Aromatic_Rings>  (1) 
1e-05

>  <Aromatic_Rings (raw)>  (1) 
4.0

>  <Stability_Alerts>  (1) 
1.0

>  <Stability_Alerts (raw)>  (1) 
1.0

>  <matchting_patterns (Stability_Alerts)>  (1) 
[]

>  <step>  (1) 
1.0

$$$$
run14a_mol_7
     RDKit          3D

 67 71  0  0  0  0  0  0  0  0999 V2000
   -0.7165    4.8084    1.7647 C   0  0  0  0  0  0  0  0  0  0  0  0
   -1.7284    3.8191    1.2634 C   0  0  0  0  0  0  0  0  0  0  0  0
   -3.0323    3.8162    1.7638 C   0  0  0  0  0  0  0  0  0  0  0  0
   -3.9655    2.9055    1.2767 C   0  0  0  0  0  0  0  0  0  0  0  0
   -3.6014    1.9966    0.2823 C   0  0  0  0  0  0  0  0  0  0  0  0
   -2.2993    1.9798   -0.2505 C   0  0  0  0  0  0  0  0  0  0  0  0
   -1.9599    0.9526   -1.3177 C   0  0  0  0  0  0  0  0  0  0  0  0
   -1.0223    1.4518   -2.4450 C   0  0  0  0  0  0  0  0  0  0  0  0
    0.1473    0.4658   -2.4730 C   0  0  0  0  0  0  0  0  0  0  0  0
    1.3382    1.0155   -1.7055 C   0  0  0  0  0  0  0  0  0  0  0  0
    2.2810    1.5223   -2.3019 O   0  0  0  0  0  0  0  0  0  0  0  0
    1.2623    0.9701   -0.3090 N   0  0  0  0  0  0  0  0  0  0  0  0
    2.3761    1.5694    0.7561 S   0  0  0  0  0  0  0  0  0  0  0  0
    2.6479    2.9516    0.4264 O   0  0  0  0  0  0  0  0  0  0  0  0
    1.8935    1.2135    2.0755 O   0  0  0  0  0  0  0  0  0  0  0  0
    3.8250    0.5972    0.4397 C   0  0  0  0  0  0  0  0  0  0  0  0
    4.0174   -0.6010    1.1338 C   0  0  0  0  0  0  0  0  0  0  0  0
    5.1723   -1.3500    0.9069 C   0  0  0  0  0  0  0  0  0  0  0  0
    6.1327   -0.8959    0.0016 C   0  0  0  0  0  0  0  0  0  0  0  0
    5.9457    0.3105   -0.6751 C   0  0  0  0  0  0  0  0  0  0  0  0
    4.7938    1.0649   -0.4521 C   0  0  0  0  0  0  0  0  0  0  0  0
   -0.4524   -0.8133   -1.8832 C   0  0  0  0  0  0  0  0  0  0  0  0
    0.5835   -1.8702   -1.5329 C   0  0  0  0  0  0  0  0  0  0  0  0
    1.3483   -2.4313   -2.5737 C   0  0  0  0  0  0  0  0  0  0  0  0
    2.3212   -3.3996   -2.3159 C   0  0  0  0  0  0  0  0  0  0  0  0
    2.5423   -3.8346   -1.0136 C   0  0  0  0  0  0  0  0  0  0  0  0
    1.7916   -3.3008    0.0288 C   0  0  0  0  0  0  0  0  0  0  0  0
    0.8251   -2.3246   -0.2278 C   0  0  0  0  0  0  0  0  0  0  0  0
   -1.2804   -0.2723   -0.7706 N   0  0  0  0  0  0  0  0  0  0  0  0
   -2.2040   -1.1452   -0.1557 C   0  0  0  0  0  0  0  0  0  0  0  0
   -2.9159   -2.1447   -0.8290 C   0  0  0  0  0  0  0  0  0  0  0  0
   -3.8127   -2.9716   -0.1454 C   0  0  0  0  0  0  0  0  0  0  0  0
   -4.0188   -2.8085    1.2228 C   0  0  0  0  0  0  0  0  0  0  0  0
   -3.3367   -1.8093    1.9187 C   0  0  0  0  0  0  0  0  0  0  0  0
   -3.5235   -1.6383    3.3966 C   0  0  0  0  0  0  0  0  0  0  0  0
   -2.4271   -0.9989    1.2249 C   0  0  0  0  0  0  0  0  0  0  0  0
   -1.3784    2.9129    0.2498 C   0  0  0  0  0  0  0  0  0  0  0  0
   -0.9925    5.1897    2.7534 H   0  0  0  0  0  0  0  0  0  0  0  0
    0.2676    4.3379    1.8610 H   0  0  0  0  0  0  0  0  0  0  0  0
   -0.6437    5.6524    1.0721 H   0  0  0  0  0  0  0  0  0  0  0  0
   -3.3263    4.5193    2.5393 H   0  0  0  0  0  0  0  0  0  0  0  0
   -4.9761    2.8969    1.6761 H   0  0  0  0  0  0  0  0  0  0  0  0
   -4.3447    1.2810   -0.0659 H   0  0  0  0  0  0  0  0  0  0  0  0
   -2.8964    0.6600   -1.8177 H   0  0  0  0  0  0  0  0  0  0  0  0
   -1.5637    1.3905   -3.3985 H   0  0  0  0  0  0  0  0  0  0  0  0
   -0.7015    2.4929   -2.3426 H   0  0  0  0  0  0  0  0  0  0  0  0
    0.4839    0.3010   -3.5043 H   0  0  0  0  0  0  0  0  0  0  0  0
    0.4549    0.5221    0.1358 H   0  0  0  0  0  0  0  0  0  0  0  0
    3.2769   -0.9555    1.8467 H   0  0  0  0  0  0  0  0  0  0  0  0
    5.3252   -2.2863    1.4373 H   0  0  0  0  0  0  0  0  0  0  0  0
    7.0321   -1.4810   -0.1738 H   0  0  0  0  0  0  0  0  0  0  0  0
    6.6974    0.6645   -1.3761 H   0  0  0  0  0  0  0  0  0  0  0  0
    4.6516    2.0049   -0.9821 H   0  0  0  0  0  0  0  0  0  0  0  0
   -1.1092   -1.2461   -2.6511 H   0  0  0  0  0  0  0  0  0  0  0  0
    1.1945   -2.1185   -3.6049 H   0  0  0  0  0  0  0  0  0  0  0  0
    2.9056   -3.8152   -3.1329 H   0  0  0  0  0  0  0  0  0  0  0  0
    3.2977   -4.5888   -0.8107 H   0  0  0  0  0  0  0  0  0  0  0  0
    1.9577   -3.6405    1.0481 H   0  0  0  0  0  0  0  0  0  0  0  0
    0.2671   -1.9296    0.6169 H   0  0  0  0  0  0  0  0  0  0  0  0
   -2.7986   -2.3047   -1.8951 H   0  0  0  0  0  0  0  0  0  0  0  0
   -4.3503   -3.7479   -0.6839 H   0  0  0  0  0  0  0  0  0  0  0  0
   -4.7142   -3.4646    1.7409 H   0  0  0  0  0  0  0  0  0  0  0  0
   -2.7714   -2.2196    3.9387 H   0  0  0  0  0  0  0  0  0  0  0  0
   -3.4317   -0.5846    3.6808 H   0  0  0  0  0  0  0  0  0  0  0  0
   -4.5190   -1.9723    3.7073 H   0  0  0  0  0  0  0  0  0  0  0  0
   -1.8765   -0.2326    1.7699 H   0  0  0  0  0  0  0  0  0  0  0  0
   -0.3663    2.9616   -0.1394 H   0  0  0  0  0  0  0  0  0  0  0  0
  1  2  1  0
  2  3  2  0
  3  4  1  0
  4  5  2  0
  5  6  1  0
  6  7  1  0
  7  8  1  0
  8  9  1  0
  9 10  1  0
 10 11  2  0
 10 12  1  0
 12 13  1  0
 13 14  2  0
 13 15  2  0
 13 16  1  0
 16 17  2  0
 17 18  1  0
 18 19  2  0
 19 20  1  0
 20 21  2  0
  9 22  1  0
 22 23  1  0
 23 24  2  0
 24 25  1  0
 25 26  2  0
 26 27  1  0
 27 28  2  0
 22 29  1  0
 29 30  1  0
 30 31  2  0
 31 32  1  0
 32 33  2  0
 33 34  1  0
 34 35  1  0
 34 36  2  0
  6 37  2  0
 37  2  1  0
 29  7  1  0
 36 30  1  0
 21 16  1  0
 28 23  1  0
  1 38  1  0
  1 39  1  0
  1 40  1  0
  3 41  1  0
  4 42  1  0
  5 43  1  0
  7 44  1  0
  8 45  1  0
  8 46  1  0
  9 47  1  0
 12 48  1  0
 17 49  1  0
 18 50  1  0
 19 51  1  0
 20 52  1  0
 21 53  1  0
 22 54  1  0
 24 55  1  0
 25 56  1  0
 26 57  1  0
 27 58  1  0
 28 59  1  0
 31 60  1  0
 32 61  1  0
 33 62  1  0
 35 63  1  0
 35 64  1  0
 35 65  1  0
 36 66  1  0
 37 67  1  0
M  END
>  <smiles>  (2) 
Cc1cccc(C2CC(C(=O)NS(=O)(=O)c3ccccc3)C(c3ccccc3)N2c2cccc(C)c2)c1

>  <mol_id>  (2) 
run14a_mol_7

>  <run_id>  (2) 
run14a

>  <original_index>  (2) 
7

>  <Agent>  (2) 
10.6627

>  <Prior>  (2) 
21.8967

>  <Target>  (2) 
80.0669

>  <Score>  (2) 
0.6797573

>  <SMILES>  (2) 
Cc1cccc(C2CC(C(=O)NS(=O)(=O)c3ccccc3)C(c3ccccc3)N2c2cccc(C)c2)c1

>  <SMILES_state>  (2) 
1.0

>  <Input_Scaffold>  (2) 
c1ccc([*])cc1C1N([*])C(c2ccccc2)C(C(=O)N[*])C1

>  <R-groups>  (2) 
C*|c1ccc(C)cc1*|c1ccccc1S(*)(=O)=O

>  <Scaffold>  (2) 
O=C(NS(=O)(=O)c1ccccc1)C1CC(c2ccccc2)N(c2ccccc2)C1c1ccccc1

>  <DENV_Activity>  (2) 
0.947844

>  <DENV_Activity (raw)>  (2) 
7.5831

>  <Stereo_Centers>  (2) 
1e-05

>  <Stereo_Centers (raw)>  (2) 
3.0

>  <QED>  (2) 
0.339514

>  <QED (raw)>  (2) 
0.3395

>  <SA>  (2) 
0.3613592

>  <SA (raw)>  (2) 
3.3891

>  <MW>  (2) 
0.9941931

>  <MW (raw)>  (2) 
510.659

>  <Heavy_Atoms>  (2) 
0.885618

>  <Heavy_Atoms (raw)>  (2) 
37.0

>  <LogP>  (2) 
0.0057889

>  <LogP (raw)>  (2) 
6.1174

>  <TPSA>  (2) 
0.9999992

>  <TPSA (raw)>  (2) 
66.48

>  <HBA>  (2) 
0.8720069

>  <HBA (raw)>  (2) 
4.0

>  <HBD>  (2) 
0.9467598

>  <HBD (raw)>  (2) 
1.0

>  <Rotatable_Bonds>  (2) 
0.1279931

>  <Rotatable_Bonds (raw)>  (2) 
6.0

>  <Ring_Count>  (2) 
0.0031523

>  <Ring_Count (raw)>  (2) 
5.0

>  <Aromatic_Rings>  (2) 
1e-05

>  <Aromatic_Rings (raw)>  (2) 
4.0

>  <Stability_Alerts>  (2) 
1.0

>  <Stability_Alerts (raw)>  (2) 
1.0

>  <matchting_patterns (Stability_Alerts)>  (2) 
[]

>  <step>  (2) 
1.0

$$$$
run14a_mol_7
     RDKit          3D

 67 71  0  0  0  0  0  0  0  0999 V2000
   -3.2808    5.4841    0.6011 C   0  0  0  0  0  0  0  0  0  0  0  0
   -2.9314    4.2176   -0.1229 C   0  0  0  0  0  0  0  0  0  0  0  0
   -3.0293    4.1480   -1.5154 C   0  0  0  0  0  0  0  0  0  0  0  0
   -2.6779    2.9789   -2.1875 C   0  0  0  0  0  0  0  0  0  0  0  0
   -2.2119    1.8728   -1.4757 C   0  0  0  0  0  0  0  0  0  0  0  0
   -2.0892    1.9169   -0.0791 C   0  0  0  0  0  0  0  0  0  0  0  0
   -1.5590    0.7510    0.7495 C   0  0  0  0  0  0  0  0  0  0  0  0
   -0.0802    0.9833    1.1079 C   0  0  0  0  0  0  0  0  0  0  0  0
    0.6565    0.2737   -0.0217 C   0  0  0  0  0  0  0  0  0  0  0  0
    2.1210    0.0329    0.2492 C   0  0  0  0  0  0  0  0  0  0  0  0
    2.6150    0.0925    1.3647 O   0  0  0  0  0  0  0  0  0  0  0  0
    2.8822   -0.1975   -0.9069 N   0  0  0  0  0  0  0  0  0  0  0  0
    4.4990   -0.5811   -0.9344 S   0  0  0  0  0  0  0  0  0  0  0  0
    4.8351   -0.6514   -2.3428 O   0  0  0  0  0  0  0  0  0  0  0  0
    4.7376   -1.7110   -0.0665 O   0  0  0  0  0  0  0  0  0  0  0  0
    5.2852    0.8612   -0.2696 C   0  0  0  0  0  0  0  0  0  0  0  0
    5.6093    1.9242   -1.1192 C   0  0  0  0  0  0  0  0  0  0  0  0
    6.2568    3.0457   -0.6002 C   0  0  0  0  0  0  0  0  0  0  0  0
    6.5855    3.0976    0.7555 C   0  0  0  0  0  0  0  0  0  0  0  0
    6.2741    2.0275    1.5961 C   0  0  0  0  0  0  0  0  0  0  0  0
    5.6290    0.9019    1.0841 C   0  0  0  0  0  0  0  0  0  0  0  0
   -0.1756   -1.0033   -0.2320 C   0  0  0  0  0  0  0  0  0  0  0  0
    0.2442   -2.1865    0.6340 C   0  0  0  0  0  0  0  0  0  0  0  0
   -0.2598   -2.4009    1.9268 C   0  0  0  0  0  0  0  0  0  0  0  0
    0.1734   -3.4828    2.6965 C   0  0  0  0  0  0  0  0  0  0  0  0
    1.1215   -4.3664    2.1891 C   0  0  0  0  0  0  0  0  0  0  0  0
    1.6315   -4.1740    0.9087 C   0  0  0  0  0  0  0  0  0  0  0  0
    1.1934   -3.0973    0.1354 C   0  0  0  0  0  0  0  0  0  0  0  0
   -1.5582   -0.5454    0.0377 N   0  0  0  0  0  0  0  0  0  0  0  0
   -2.6969   -1.2810   -0.2382 C   0  0  0  0  0  0  0  0  0  0  0  0
   -3.9759   -0.8513    0.1522 C   0  0  0  0  0  0  0  0  0  0  0  0
   -5.1320   -1.5915   -0.1241 C   0  0  0  0  0  0  0  0  0  0  0  0
   -5.0439   -2.7956   -0.8100 C   0  0  0  0  0  0  0  0  0  0  0  0
   -3.7997   -3.2567   -1.2338 C   0  0  0  0  0  0  0  0  0  0  0  0
   -3.6746   -4.5731   -1.9422 C   0  0  0  0  0  0  0  0  0  0  0  0
   -2.6493   -2.5018   -0.9360 C   0  0  0  0  0  0  0  0  0  0  0  0
   -2.4504    3.1059    0.5830 C   0  0  0  0  0  0  0  0  0  0  0  0
   -4.0583    6.0392    0.0659 H   0  0  0  0  0  0  0  0  0  0  0  0
   -3.6685    5.2669    1.6020 H   0  0  0  0  0  0  0  0  0  0  0  0
   -2.3940    6.1184    0.6943 H   0  0  0  0  0  0  0  0  0  0  0  0
   -3.3869    5.0024   -2.0856 H   0  0  0  0  0  0  0  0  0  0  0  0
   -2.7719    2.9256   -3.2691 H   0  0  0  0  0  0  0  0  0  0  0  0
   -1.9581    0.9691   -2.0248 H   0  0  0  0  0  0  0  0  0  0  0  0
   -2.1380    0.6744    1.6788 H   0  0  0  0  0  0  0  0  0  0  0  0
    0.1473    0.5207    2.0762 H   0  0  0  0  0  0  0  0  0  0  0  0
    0.2028    2.0387    1.1851 H   0  0  0  0  0  0  0  0  0  0  0  0
    0.5854    0.9065   -0.9179 H   0  0  0  0  0  0  0  0  0  0  0  0
    2.4822   -0.1352   -1.8371 H   0  0  0  0  0  0  0  0  0  0  0  0
    5.3708    1.8844   -2.1794 H   0  0  0  0  0  0  0  0  0  0  0  0
    6.5128    3.8774   -1.2521 H   0  0  0  0  0  0  0  0  0  0  0  0
    7.0917    3.9718    1.1582 H   0  0  0  0  0  0  0  0  0  0  0  0
    6.5351    2.0689    2.6509 H   0  0  0  0  0  0  0  0  0  0  0  0
    5.3864    0.0705    1.7439 H   0  0  0  0  0  0  0  0  0  0  0  0
   -0.0917   -1.2908   -1.2888 H   0  0  0  0  0  0  0  0  0  0  0  0
   -1.0083   -1.7338    2.3470 H   0  0  0  0  0  0  0  0  0  0  0  0
   -0.2303   -3.6332    3.6942 H   0  0  0  0  0  0  0  0  0  0  0  0
    1.4646   -5.2028    2.7917 H   0  0  0  0  0  0  0  0  0  0  0  0
    2.3790   -4.8575    0.5136 H   0  0  0  0  0  0  0  0  0  0  0  0
    1.6140   -2.9754   -0.8604 H   0  0  0  0  0  0  0  0  0  0  0  0
   -4.1119    0.0833    0.6881 H   0  0  0  0  0  0  0  0  0  0  0  0
   -6.0998   -1.2206    0.2024 H   0  0  0  0  0  0  0  0  0  0  0  0
   -5.9462   -3.3674   -1.0104 H   0  0  0  0  0  0  0  0  0  0  0  0
   -4.5966   -4.8195   -2.4793 H   0  0  0  0  0  0  0  0  0  0  0  0
   -3.4646   -5.3679   -1.2199 H   0  0  0  0  0  0  0  0  0  0  0  0
   -2.8675   -4.5416   -2.6816 H   0  0  0  0  0  0  0  0  0  0  0  0
   -1.6966   -2.9058   -1.2658 H   0  0  0  0  0  0  0  0  0  0  0  0
   -2.3567    3.1663    1.6665 H   0  0  0  0  0  0  0  0  0  0  0  0
  1  2  1  0
  2  3  2  0
  3  4  1  0
  4  5  2  0
  5  6  1  0
  6  7  1  0
  7  8  1  0
  8  9  1  0
  9 10  1  0
 10 11  2  0
 10 12  1  0
 12 13  1  0
 13 14  2  0
 13 15  2  0
 13 16  1  0
 16 17  2  0
 17 18  1  0
 18 19  2  0
 19 20  1  0
 20 21  2  0
  9 22  1  0
 22 23  1  0
 23 24  2  0
 24 25  1  0
 25 26  2  0
 26 27  1  0
 27 28  2  0
 22 29  1  0
 29 30  1  0
 30 31  2  0
 31 32  1  0
 32 33  2  0
 33 34  1  0
 34 35  1  0
 34 36  2  0
  6 37  2  0
 37  2  1  0
 29  7  1  0
 36 30  1  0
 21 16  1  0
 28 23  1  0
  1 38  1  0
  1 39  1  0
  1 40  1  0
  3 41  1  0
  4 42  1  0
  5 43  1  0
  7 44  1  0
  8 45  1  0
  8 46  1  0
  9 47  1  0
 12 48  1  0
 17 49  1  0
 18 50  1  0
 19 51  1  0
 20 52  1  0
 21 53  1  0
 22 54  1  0
 24 55  1  0
 25 56  1  0
 26 57  1  0
 27 58  1  0
 28 59  1  0
 31 60  1  0
 32 61  1  0
 33 62  1  0
 35 63  1  0
 35 64  1  0
 35 65  1  0
 36 66  1  0
 37 67  1  0
M  END
>  <smiles>  (3) 
Cc1cccc(C2CC(C(=O)NS(=O)(=O)c3ccccc3)C(c3ccccc3)N2c2cccc(C)c2)c1

>  <mol_id>  (3) 
run14a_mol_7

>  <run_id>  (3) 
run14a

>  <original_index>  (3) 
7

>  <Agent>  (3) 
10.6627

>  <Prior>  (3) 
21.8967

>  <Target>  (3) 
80.0669

>  <Score>  (3) 
0.6797573

>  <SMILES>  (3) 
Cc1cccc(C2CC(C(=O)NS(=O)(=O)c3ccccc3)C(c3ccccc3)N2c2cccc(C)c2)c1

>  <SMILES_state>  (3) 
1.0

>  <Input_Scaffold>  (3) 
c1ccc([*])cc1C1N([*])C(c2ccccc2)C(C(=O)N[*])C1

>  <R-groups>  (3) 
C*|c1ccc(C)cc1*|c1ccccc1S(*)(=O)=O

>  <Scaffold>  (3) 
O=C(NS(=O)(=O)c1ccccc1)C1CC(c2ccccc2)N(c2ccccc2)C1c1ccccc1

>  <DENV_Activity>  (3) 
0.947844

>  <DENV_Activity (raw)>  (3) 
7.5831

>  <Stereo_Centers>  (3) 
1e-05

>  <Stereo_Centers (raw)>  (3) 
3.0

>  <QED>  (3) 
0.339514

>  <QED (raw)>  (3) 
0.3395

>  <SA>  (3) 
0.3613592

>  <SA (raw)>  (3) 
3.3891

>  <MW>  (3) 
0.9941931

>  <MW (raw)>  (3) 
510.659

>  <Heavy_Atoms>  (3) 
0.885618

>  <Heavy_Atoms (raw)>  (3) 
37.0

>  <LogP>  (3) 
0.0057889

>  <LogP (raw)>  (3) 
6.1174

>  <TPSA>  (3) 
0.9999992

>  <TPSA (raw)>  (3) 
66.48

>  <HBA>  (3) 
0.8720069

>  <HBA (raw)>  (3) 
4.0

>  <HBD>  (3) 
0.9467598

>  <HBD (raw)>  (3) 
1.0

>  <Rotatable_Bonds>  (3) 
0.1279931

>  <Rotatable_Bonds (raw)>  (3) 
6.0

>  <Ring_Count>  (3) 
0.0031523

>  <Ring_Count (raw)>  (3) 
5.0

>  <Aromatic_Rings>  (3) 
1e-05

>  <Aromatic_Rings (raw)>  (3) 
4.0

>  <Stability_Alerts>  (3) 
1.0

>  <Stability_Alerts (raw)>  (3) 
1.0

>  <matchting_patterns (Stability_Alerts)>  (3) 
[]

>  <step>  (3) 
1.0

$$$$
run14a_mol_7
     RDKit          3D

 67 71  0  0  0  0  0  0  0  0999 V2000
   -4.6941    5.2986   -0.3724 C   0  0  0  0  0  0  0  0  0  0  0  0
   -3.8419    4.1605   -0.8512 C   0  0  0  0  0  0  0  0  0  0  0  0
   -3.8131    3.8204   -2.2073 C   0  0  0  0  0  0  0  0  0  0  0  0
   -2.9966    2.7840   -2.6567 C   0  0  0  0  0  0  0  0  0  0  0  0
   -2.1930    2.0850   -1.7564 C   0  0  0  0  0  0  0  0  0  0  0  0
   -2.1978    2.4085   -0.3908 C   0  0  0  0  0  0  0  0  0  0  0  0
   -1.3031    1.7008    0.6127 C   0  0  0  0  0  0  0  0  0  0  0  0
    0.0850    2.3555    0.5742 C   0  0  0  0  0  0  0  0  0  0  0  0
    1.0110    1.2657    1.0861 C   0  0  0  0  0  0  0  0  0  0  0  0
    2.4386    1.3734    0.6039 C   0  0  0  0  0  0  0  0  0  0  0  0
    3.3741    1.3143    1.3903 O   0  0  0  0  0  0  0  0  0  0  0  0
    2.6302    1.4880   -0.7818 N   0  0  0  0  0  0  0  0  0  0  0  0
    4.1078    1.4590   -1.5479 S   0  0  0  0  0  0  0  0  0  0  0  0
    4.9909    2.4290   -0.9440 O   0  0  0  0  0  0  0  0  0  0  0  0
    3.7977    1.5106   -2.9622 O   0  0  0  0  0  0  0  0  0  0  0  0
    4.6895   -0.1800   -1.1921 C   0  0  0  0  0  0  0  0  0  0  0  0
    5.5378   -0.3956   -0.1033 C   0  0  0  0  0  0  0  0  0  0  0  0
    5.9874   -1.6868    0.1718 C   0  0  0  0  0  0  0  0  0  0  0  0
    5.6024   -2.7506   -0.6461 C   0  0  0  0  0  0  0  0  0  0  0  0
    4.7705   -2.5280   -1.7447 C   0  0  0  0  0  0  0  0  0  0  0  0
    4.3138   -1.2399   -2.0246 C   0  0  0  0  0  0  0  0  0  0  0  0
    0.3864   -0.0528    0.6008 C   0  0  0  0  0  0  0  0  0  0  0  0
    0.6179   -1.1351    1.6476 C   0  0  0  0  0  0  0  0  0  0  0  0
    1.6960   -2.0239    1.4914 C   0  0  0  0  0  0  0  0  0  0  0  0
    1.9596   -3.0021    2.4516 C   0  0  0  0  0  0  0  0  0  0  0  0
    1.1538   -3.1047    3.5826 C   0  0  0  0  0  0  0  0  0  0  0  0
    0.0864   -2.2272    3.7571 C   0  0  0  0  0  0  0  0  0  0  0  0
   -0.1763   -1.2452    2.8003 C   0  0  0  0  0  0  0  0  0  0  0  0
   -1.0308    0.2801    0.3332 N   0  0  0  0  0  0  0  0  0  0  0  0
   -2.0032   -0.6816    0.1200 C   0  0  0  0  0  0  0  0  0  0  0  0
   -3.3488   -0.4758    0.4592 C   0  0  0  0  0  0  0  0  0  0  0  0
   -4.3274   -1.4525    0.2428 C   0  0  0  0  0  0  0  0  0  0  0  0
   -3.9843   -2.6720   -0.3284 C   0  0  0  0  0  0  0  0  0  0  0  0
   -2.6627   -2.9144   -0.6986 C   0  0  0  0  0  0  0  0  0  0  0  0
   -2.2643   -4.2361   -1.2850 C   0  0  0  0  0  0  0  0  0  0  0  0
   -1.6926   -1.9238   -0.4628 C   0  0  0  0  0  0  0  0  0  0  0  0
   -3.0215    3.4616    0.0454 C   0  0  0  0  0  0  0  0  0  0  0  0
   -4.1249    6.2326   -0.4077 H   0  0  0  0  0  0  0  0  0  0  0  0
   -5.5892    5.4057   -0.9942 H   0  0  0  0  0  0  0  0  0  0  0  0
   -5.0318    5.1276    0.6552 H   0  0  0  0  0  0  0  0  0  0  0  0
   -4.4297    4.3593   -2.9231 H   0  0  0  0  0  0  0  0  0  0  0  0
   -2.9874    2.5178   -3.7105 H   0  0  0  0  0  0  0  0  0  0  0  0
   -1.5699    1.2736   -2.1256 H   0  0  0  0  0  0  0  0  0  0  0  0
   -1.7217    1.7813    1.6247 H   0  0  0  0  0  0  0  0  0  0  0  0
    0.3538    2.6797   -0.4377 H   0  0  0  0  0  0  0  0  0  0  0  0
    0.1245    3.2515    1.2047 H   0  0  0  0  0  0  0  0  0  0  0  0
    1.0257    1.3236    2.1834 H   0  0  0  0  0  0  0  0  0  0  0  0
    1.8580    1.5201   -1.4407 H   0  0  0  0  0  0  0  0  0  0  0  0
    5.8380    0.4303    0.5397 H   0  0  0  0  0  0  0  0  0  0  0  0
    6.6404   -1.8624    1.0236 H   0  0  0  0  0  0  0  0  0  0  0  0
    5.9606   -3.7548   -0.4311 H   0  0  0  0  0  0  0  0  0  0  0  0
    4.4862   -3.3586   -2.3866 H   0  0  0  0  0  0  0  0  0  0  0  0
    3.6768   -1.0721   -2.8900 H   0  0  0  0  0  0  0  0  0  0  0  0
    0.8281   -0.3783   -0.3498 H   0  0  0  0  0  0  0  0  0  0  0  0
    2.3470   -1.9622    0.6219 H   0  0  0  0  0  0  0  0  0  0  0  0
    2.7973   -3.6818    2.3178 H   0  0  0  0  0  0  0  0  0  0  0  0
    1.3579   -3.8674    4.3293 H   0  0  0  0  0  0  0  0  0  0  0  0
   -0.5449   -2.3073    4.6382 H   0  0  0  0  0  0  0  0  0  0  0  0
   -1.0172   -0.5728    2.9546 H   0  0  0  0  0  0  0  0  0  0  0  0
   -3.6697    0.4527    0.9215 H   0  0  0  0  0  0  0  0  0  0  0  0
   -5.3574   -1.2555    0.5274 H   0  0  0  0  0  0  0  0  0  0  0  0
   -4.7511   -3.4266   -0.4828 H   0  0  0  0  0  0  0  0  0  0  0  0
   -1.4584   -4.1104   -2.0157 H   0  0  0  0  0  0  0  0  0  0  0  0
   -1.9237   -4.9093   -0.4924 H   0  0  0  0  0  0  0  0  0  0  0  0
   -3.1054   -4.7038   -1.8075 H   0  0  0  0  0  0  0  0  0  0  0  0
   -0.6699   -2.1408   -0.7587 H   0  0  0  0  0  0  0  0  0  0  0  0
   -3.0271    3.7414    1.0976 H   0  0  0  0  0  0  0  0  0  0  0  0
  1  2  1  0
  2  3  2  0
  3  4  1  0
  4  5  2  0
  5  6  1  0
  6  7  1  0
  7  8  1  0
  8  9  1  0
  9 10  1  0
 10 11  2  0
 10 12  1  0
 12 13  1  0
 13 14  2  0
 13 15  2  0
 13 16  1  0
 16 17  2  0
 17 18  1  0
 18 19  2  0
 19 20  1  0
 20 21  2  0
  9 22  1  0
 22 23  1  0
 23 24  2  0
 24 25  1  0
 25 26  2  0
 26 27  1  0
 27 28  2  0
 22 29  1  0
 29 30  1  0
 30 31  2  0
 31 32  1  0
 32 33  2  0
 33 34  1  0
 34 35  1  0
 34 36  2  0
  6 37  2  0
 37  2  1  0
 29  7  1  0
 36 30  1  0
 21 16  1  0
 28 23  1  0
  1 38  1  0
  1 39  1  0
  1 40  1  0
  3 41  1  0
  4 42  1  0
  5 43  1  0
  7 44  1  0
  8 45  1  0
  8 46  1  0
  9 47  1  0
 12 48  1  0
 17 49  1  0
 18 50  1  0
 19 51  1  0
 20 52  1  0
 21 53  1  0
 22 54  1  0
 24 55  1  0
 25 56  1  0
 26 57  1  0
 27 58  1  0
 28 59  1  0
 31 60  1  0
 32 61  1  0
 33 62  1  0
 35 63  1  0
 35 64  1  0
 35 65  1  0
 36 66  1  0
 37 67  1  0
M  END
>  <smiles>  (4) 
Cc1cccc(C2CC(C(=O)NS(=O)(=O)c3ccccc3)C(c3ccccc3)N2c2cccc(C)c2)c1

>  <mol_id>  (4) 
run14a_mol_7

>  <run_id>  (4) 
run14a

>  <original_index>  (4) 
7

>  <Agent>  (4) 
10.6627

>  <Prior>  (4) 
21.8967

>  <Target>  (4) 
80.0669

>  <Score>  (4) 
0.6797573

>  <SMILES>  (4) 
Cc1cccc(C2CC(C(=O)NS(=O)(=O)c3ccccc3)C(c3ccccc3)N2c2cccc(C)c2)c1

>  <SMILES_state>  (4) 
1.0

>  <Input_Scaffold>  (4) 
c1ccc([*])cc1C1N([*])C(c2ccccc2)C(C(=O)N[*])C1

>  <R-groups>  (4) 
C*|c1ccc(C)cc1*|c1ccccc1S(*)(=O)=O

>  <Scaffold>  (4) 
O=C(NS(=O)(=O)c1ccccc1)C1CC(c2ccccc2)N(c2ccccc2)C1c1ccccc1

>  <DENV_Activity>  (4) 
0.947844

>  <DENV_Activity (raw)>  (4) 
7.5831

>  <Stereo_Centers>  (4) 
1e-05

>  <Stereo_Centers (raw)>  (4) 
3.0

>  <QED>  (4) 
0.339514

>  <QED (raw)>  (4) 
0.3395

>  <SA>  (4) 
0.3613592

>  <SA (raw)>  (4) 
3.3891

>  <MW>  (4) 
0.9941931

>  <MW (raw)>  (4) 
510.659

>  <Heavy_Atoms>  (4) 
0.885618

>  <Heavy_Atoms (raw)>  (4) 
37.0

>  <LogP>  (4) 
0.0057889

>  <LogP (raw)>  (4) 
6.1174

>  <TPSA>  (4) 
0.9999992

>  <TPSA (raw)>  (4) 
66.48

>  <HBA>  (4) 
0.8720069

>  <HBA (raw)>  (4) 
4.0

>  <HBD>  (4) 
0.9467598

>  <HBD (raw)>  (4) 
1.0

>  <Rotatable_Bonds>  (4) 
0.1279931

>  <Rotatable_Bonds (raw)>  (4) 
6.0

>  <Ring_Count>  (4) 
0.0031523

>  <Ring_Count (raw)>  (4) 
5.0

>  <Aromatic_Rings>  (4) 
1e-05

>  <Aromatic_Rings (raw)>  (4) 
4.0

>  <Stability_Alerts>  (4) 
1.0

>  <Stability_Alerts (raw)>  (4) 
1.0

>  <matchting_patterns (Stability_Alerts)>  (4) 
[]

>  <step>  (4) 
1.0

$$$$
run14a_mol_7
     RDKit          3D

 67 71  0  0  0  0  0  0  0  0999 V2000
   -4.5027   -4.5283   -0.2561 C   0  0  0  0  0  0  0  0  0  0  0  0
   -3.8758   -3.2420   -0.7063 C   0  0  0  0  0  0  0  0  0  0  0  0
   -4.3461   -2.5882   -1.8494 C   0  0  0  0  0  0  0  0  0  0  0  0
   -3.7866   -1.3752   -2.2465 C   0  0  0  0  0  0  0  0  0  0  0  0
   -2.7584   -0.8002   -1.4998 C   0  0  0  0  0  0  0  0  0  0  0  0
   -2.2791   -1.4246   -0.3392 C   0  0  0  0  0  0  0  0  0  0  0  0
   -1.1460   -0.8408    0.4808 C   0  0  0  0  0  0  0  0  0  0  0  0
    0.2197   -1.2356   -0.1064 C   0  0  0  0  0  0  0  0  0  0  0  0
    1.1060   -0.0734    0.3155 C   0  0  0  0  0  0  0  0  0  0  0  0
    2.4715    0.0677   -0.3072 C   0  0  0  0  0  0  0  0  0  0  0  0
    3.0802    1.1280   -0.2838 O   0  0  0  0  0  0  0  0  0  0  0  0
    3.0352   -1.1088   -0.8201 N   0  0  0  0  0  0  0  0  0  0  0  0
    4.4637   -1.1926   -1.6686 S   0  0  0  0  0  0  0  0  0  0  0  0
    4.4449   -0.2056   -2.7235 O   0  0  0  0  0  0  0  0  0  0  0  0
    4.6286   -2.5995   -1.9752 O   0  0  0  0  0  0  0  0  0  0  0  0
    5.6903   -0.7612   -0.4647 C   0  0  0  0  0  0  0  0  0  0  0  0
    6.2199   -1.7537    0.3668 C   0  0  0  0  0  0  0  0  0  0  0  0
    7.2081   -1.4188    1.2930 C   0  0  0  0  0  0  0  0  0  0  0  0
    7.6684   -0.1037    1.3787 C   0  0  0  0  0  0  0  0  0  0  0  0
    7.1483    0.8798    0.5358 C   0  0  0  0  0  0  0  0  0  0  0  0
    6.1620    0.5523   -0.3945 C   0  0  0  0  0  0  0  0  0  0  0  0
    0.2004    1.1501    0.0953 C   0  0  0  0  0  0  0  0  0  0  0  0
    0.0229    1.7655   -1.2946 C   0  0  0  0  0  0  0  0  0  0  0  0
   -0.7041    2.9716   -1.3790 C   0  0  0  0  0  0  0  0  0  0  0  0
   -0.9227    3.6097   -2.6013 C   0  0  0  0  0  0  0  0  0  0  0  0
   -0.4176    3.0552   -3.7712 C   0  0  0  0  0  0  0  0  0  0  0  0
    0.2981    1.8630   -3.7154 C   0  0  0  0  0  0  0  0  0  0  0  0
    0.5132    1.2211   -2.4903 C   0  0  0  0  0  0  0  0  0  0  0  0
   -1.1346    0.6452    0.5178 N   0  0  0  0  0  0  0  0  0  0  0  0
   -1.7460    1.1681    1.6671 C   0  0  0  0  0  0  0  0  0  0  0  0
   -1.0425    1.6848    2.7623 C   0  0  0  0  0  0  0  0  0  0  0  0
   -1.7129    2.1686    3.8907 C   0  0  0  0  0  0  0  0  0  0  0  0
   -3.1041    2.1459    3.9458 C   0  0  0  0  0  0  0  0  0  0  0  0
   -3.8365    1.6477    2.8676 C   0  0  0  0  0  0  0  0  0  0  0  0
   -5.3338    1.5877    2.9200 C   0  0  0  0  0  0  0  0  0  0  0  0
   -3.1490    1.1527    1.7489 C   0  0  0  0  0  0  0  0  0  0  0  0
   -2.8518   -2.6495    0.0464 C   0  0  0  0  0  0  0  0  0  0  0  0
   -4.8802   -5.0998   -1.1106 H   0  0  0  0  0  0  0  0  0  0  0  0
   -3.7707   -5.1599    0.2583 H   0  0  0  0  0  0  0  0  0  0  0  0
   -5.3332   -4.3211    0.4256 H   0  0  0  0  0  0  0  0  0  0  0  0
   -5.1536   -3.0183   -2.4373 H   0  0  0  0  0  0  0  0  0  0  0  0
   -4.1544   -0.8700   -3.1359 H   0  0  0  0  0  0  0  0  0  0  0  0
   -2.3451    0.1532   -1.8222 H   0  0  0  0  0  0  0  0  0  0  0  0
   -1.1971   -1.2341    1.5072 H   0  0  0  0  0  0  0  0  0  0  0  0
    0.5628   -2.1915    0.3057 H   0  0  0  0  0  0  0  0  0  0  0  0
    0.1898   -1.3529   -1.1954 H   0  0  0  0  0  0  0  0  0  0  0  0
    1.2920   -0.1821    1.3950 H   0  0  0  0  0  0  0  0  0  0  0  0
    2.5771   -2.0113   -0.7576 H   0  0  0  0  0  0  0  0  0  0  0  0
    5.8785   -2.7835    0.2944 H   0  0  0  0  0  0  0  0  0  0  0  0
    7.6268   -2.1830    1.9435 H   0  0  0  0  0  0  0  0  0  0  0  0
    8.4405    0.1552    2.0995 H   0  0  0  0  0  0  0  0  0  0  0  0
    7.5126    1.9023    0.6012 H   0  0  0  0  0  0  0  0  0  0  0  0
    5.7592    1.3232   -1.0493 H   0  0  0  0  0  0  0  0  0  0  0  0
    0.5761    1.9669    0.7247 H   0  0  0  0  0  0  0  0  0  0  0  0
   -1.1196    3.4147   -0.4744 H   0  0  0  0  0  0  0  0  0  0  0  0
   -1.4883    4.5367   -2.6352 H   0  0  0  0  0  0  0  0  0  0  0  0
   -0.5810    3.5492   -4.7249 H   0  0  0  0  0  0  0  0  0  0  0  0
    0.6962    1.4279   -4.6291 H   0  0  0  0  0  0  0  0  0  0  0  0
    1.0723    0.2931   -2.5198 H   0  0  0  0  0  0  0  0  0  0  0  0
    0.0420    1.7030    2.7803 H   0  0  0  0  0  0  0  0  0  0  0  0
   -1.1448    2.5592    4.7310 H   0  0  0  0  0  0  0  0  0  0  0  0
   -3.6113    2.5202    4.8316 H   0  0  0  0  0  0  0  0  0  0  0  0
   -5.7647    1.7348    1.9241 H   0  0  0  0  0  0  0  0  0  0  0  0
   -5.6558    0.6158    3.3063 H   0  0  0  0  0  0  0  0  0  0  0  0
   -5.7354    2.3750    3.5666 H   0  0  0  0  0  0  0  0  0  0  0  0
   -3.7212    0.7625    0.9090 H   0  0  0  0  0  0  0  0  0  0  0  0
   -2.5006   -3.1480    0.9482 H   0  0  0  0  0  0  0  0  0  0  0  0
  1  2  1  0
  2  3  2  0
  3  4  1  0
  4  5  2  0
  5  6  1  0
  6  7  1  0
  7  8  1  0
  8  9  1  0
  9 10  1  0
 10 11  2  0
 10 12  1  0
 12 13  1  0
 13 14  2  0
 13 15  2  0
 13 16  1  0
 16 17  2  0
 17 18  1  0
 18 19  2  0
 19 20  1  0
 20 21  2  0
  9 22  1  0
 22 23  1  0
 23 24  2  0
 24 25  1  0
 25 26  2  0
 26 27  1  0
 27 28  2  0
 22 29  1  0
 29 30  1  0
 30 31  2  0
 31 32  1  0
 32 33  2  0
 33 34  1  0
 34 35  1  0
 34 36  2  0
  6 37  2  0
 37  2  1  0
 29  7  1  0
 36 30  1  0
 21 16  1  0
 28 23  1  0
  1 38  1  0
  1 39  1  0
  1 40  1  0
  3 41  1  0
  4 42  1  0
  5 43  1  0
  7 44  1  0
  8 45  1  0
  8 46  1  0
  9 47  1  0
 12 48  1  0
 17 49  1  0
 18 50  1  0
 19 51  1  0
 20 52  1  0
 21 53  1  0
 22 54  1  0
 24 55  1  0
 25 56  1  0
 26 57  1  0
 27 58  1  0
 28 59  1  0
 31 60  1  0
 32 61  1  0
 33 62  1  0
 35 63  1  0
 35 64  1  0
 35 65  1  0
 36 66  1  0
 37 67  1  0
M  END
>  <smiles>  (5) 
Cc1cccc(C2CC(C(=O)NS(=O)(=O)c3ccccc3)C(c3ccccc3)N2c2cccc(C)c2)c1

>  <mol_id>  (5) 
run14a_mol_7

>  <run_id>  (5) 
run14a

>  <original_index>  (5) 
7

>  <Agent>  (5) 
10.6627

>  <Prior>  (5) 
21.8967

>  <Target>  (5) 
80.0669

>  <Score>  (5) 
0.6797573

>  <SMILES>  (5) 
Cc1cccc(C2CC(C(=O)NS(=O)(=O)c3ccccc3)C(c3ccccc3)N2c2cccc(C)c2)c1

>  <SMILES_state>  (5) 
1.0

>  <Input_Scaffold>  (5) 
c1ccc([*])cc1C1N([*])C(c2ccccc2)C(C(=O)N[*])C1

>  <R-groups>  (5) 
C*|c1ccc(C)cc1*|c1ccccc1S(*)(=O)=O

>  <Scaffold>  (5) 
O=C(NS(=O)(=O)c1ccccc1)C1CC(c2ccccc2)N(c2ccccc2)C1c1ccccc1

>  <DENV_Activity>  (5) 
0.947844

>  <DENV_Activity (raw)>  (5) 
7.5831

>  <Stereo_Centers>  (5) 
1e-05

>  <Stereo_Centers (raw)>  (5) 
3.0

>  <QED>  (5) 
0.339514

>  <QED (raw)>  (5) 
0.3395

>  <SA>  (5) 
0.3613592

>  <SA (raw)>  (5) 
3.3891

>  <MW>  (5) 
0.9941931

>  <MW (raw)>  (5) 
510.659

>  <Heavy_Atoms>  (5) 
0.885618

>  <Heavy_Atoms (raw)>  (5) 
37.0

>  <LogP>  (5) 
0.0057889

>  <LogP (raw)>  (5) 
6.1174

>  <TPSA>  (5) 
0.9999992

>  <TPSA (raw)>  (5) 
66.48

>  <HBA>  (5) 
0.8720069

>  <HBA (raw)>  (5) 
4.0

>  <HBD>  (5) 
0.9467598

>  <HBD (raw)>  (5) 
1.0

>  <Rotatable_Bonds>  (5) 
0.1279931

>  <Rotatable_Bonds (raw)>  (5) 
6.0

>  <Ring_Count>  (5) 
0.0031523

>  <Ring_Count (raw)>  (5) 
5.0

>  <Aromatic_Rings>  (5) 
1e-05

>  <Aromatic_Rings (raw)>  (5) 
4.0

>  <Stability_Alerts>  (5) 
1.0

>  <Stability_Alerts (raw)>  (5) 
1.0

>  <matchting_patterns (Stability_Alerts)>  (5) 
[]

>  <step>  (5) 
1.0

$$$$
run14a_mol_7
     RDKit          3D

 67 71  0  0  0  0  0  0  0  0999 V2000
   -2.2165    5.5792   -0.0809 C   0  0  0  0  0  0  0  0  0  0  0  0
   -2.4011    4.1459   -0.4832 C   0  0  0  0  0  0  0  0  0  0  0  0
   -3.1576    3.8199   -1.6119 C   0  0  0  0  0  0  0  0  0  0  0  0
   -3.3074    2.4892   -1.9959 C   0  0  0  0  0  0  0  0  0  0  0  0
   -2.6896    1.4732   -1.2651 C   0  0  0  0  0  0  0  0  0  0  0  0
   -1.9056    1.7683   -0.1413 C   0  0  0  0  0  0  0  0  0  0  0  0
   -1.1987    0.7047    0.6826 C   0  0  0  0  0  0  0  0  0  0  0  0
    0.3271    0.8229    0.5164 C   0  0  0  0  0  0  0  0  0  0  0  0
    0.7909   -0.5459    0.9791 C   0  0  0  0  0  0  0  0  0  0  0  0
    2.2419   -0.8937    0.7429 C   0  0  0  0  0  0  0  0  0  0  0  0
    2.8855   -1.4701    1.6117 O   0  0  0  0  0  0  0  0  0  0  0  0
    2.8013   -0.5340   -0.4904 N   0  0  0  0  0  0  0  0  0  0  0  0
    4.3028   -1.0079   -1.0282 S   0  0  0  0  0  0  0  0  0  0  0  0
    4.5188   -2.4042   -0.7240 O   0  0  0  0  0  0  0  0  0  0  0  0
    4.3946   -0.5216   -2.3902 O   0  0  0  0  0  0  0  0  0  0  0  0
    5.3958   -0.0183   -0.0403 C   0  0  0  0  0  0  0  0  0  0  0  0
    5.9206   -0.5402    1.1451 C   0  0  0  0  0  0  0  0  0  0  0  0
    6.7978    0.2316    1.9068 C   0  0  0  0  0  0  0  0  0  0  0  0
    7.1563    1.5107    1.4777 C   0  0  0  0  0  0  0  0  0  0  0  0
    6.6427    2.0221    0.2845 C   0  0  0  0  0  0  0  0  0  0  0  0
    5.7632    1.2570   -0.4819 C   0  0  0  0  0  0  0  0  0  0  0  0
   -0.2328   -1.5120    0.3617 C   0  0  0  0  0  0  0  0  0  0  0  0
    0.1579   -2.0516   -1.0084 C   0  0  0  0  0  0  0  0  0  0  0  0
    0.9051   -3.2413   -1.0820 C   0  0  0  0  0  0  0  0  0  0  0  0
    1.3507   -3.7332   -2.3098 C   0  0  0  0  0  0  0  0  0  0  0  0
    1.0489   -3.0517   -3.4849 C   0  0  0  0  0  0  0  0  0  0  0  0
    0.2986   -1.8806   -3.4338 C   0  0  0  0  0  0  0  0  0  0  0  0
   -0.1422   -1.3841   -2.2056 C   0  0  0  0  0  0  0  0  0  0  0  0
   -1.4871   -0.7017    0.3053 N   0  0  0  0  0  0  0  0  0  0  0  0
   -2.6801   -1.3299    0.6849 C   0  0  0  0  0  0  0  0  0  0  0  0
   -2.9355   -2.6672    0.3337 C   0  0  0  0  0  0  0  0  0  0  0  0
   -4.1276   -3.3143    0.6768 C   0  0  0  0  0  0  0  0  0  0  0  0
   -5.1147   -2.6328    1.3772 C   0  0  0  0  0  0  0  0  0  0  0  0
   -4.9134   -1.3006    1.7345 C   0  0  0  0  0  0  0  0  0  0  0  0
   -5.9909   -0.5304    2.4395 C   0  0  0  0  0  0  0  0  0  0  0  0
   -3.7128   -0.6632    1.3683 C   0  0  0  0  0  0  0  0  0  0  0  0
   -1.7731    3.1190    0.2363 C   0  0  0  0  0  0  0  0  0  0  0  0
   -1.3258    5.9916   -0.5648 H   0  0  0  0  0  0  0  0  0  0  0  0
   -2.1037    5.6681    1.0047 H   0  0  0  0  0  0  0  0  0  0  0  0
   -3.0853    6.1812   -0.3669 H   0  0  0  0  0  0  0  0  0  0  0  0
   -3.6416    4.5995   -2.1957 H   0  0  0  0  0  0  0  0  0  0  0  0
   -3.9099    2.2382   -2.8652 H   0  0  0  0  0  0  0  0  0  0  0  0
   -2.8382    0.4428   -1.5815 H   0  0  0  0  0  0  0  0  0  0  0  0
   -1.4355    0.8533    1.7456 H   0  0  0  0  0  0  0  0  0  0  0  0
    0.7503    1.6278    1.1275 H   0  0  0  0  0  0  0  0  0  0  0  0
    0.6025    1.0275   -0.5245 H   0  0  0  0  0  0  0  0  0  0  0  0
    0.6531   -0.5700    2.0719 H   0  0  0  0  0  0  0  0  0  0  0  0
    2.2416   -0.1438   -1.2428 H   0  0  0  0  0  0  0  0  0  0  0  0
    5.6450   -1.5380    1.4822 H   0  0  0  0  0  0  0  0  0  0  0  0
    7.2046   -0.1664    2.8334 H   0  0  0  0  0  0  0  0  0  0  0  0
    7.8443    2.1074    2.0720 H   0  0  0  0  0  0  0  0  0  0  0  0
    6.9352    3.0143   -0.0507 H   0  0  0  0  0  0  0  0  0  0  0  0
    5.3780    1.6557   -1.4174 H   0  0  0  0  0  0  0  0  0  0  0  0
   -0.3496   -2.3580    1.0539 H   0  0  0  0  0  0  0  0  0  0  0  0
    1.1711   -3.7874   -0.1777 H   0  0  0  0  0  0  0  0  0  0  0  0
    1.9456   -4.6429   -2.3460 H   0  0  0  0  0  0  0  0  0  0  0  0
    1.4006   -3.4332   -4.4400 H   0  0  0  0  0  0  0  0  0  0  0  0
    0.0566   -1.3512   -4.3521 H   0  0  0  0  0  0  0  0  0  0  0  0
   -0.7254   -0.4682   -2.1975 H   0  0  0  0  0  0  0  0  0  0  0  0
   -2.2147   -3.2347   -0.2486 H   0  0  0  0  0  0  0  0  0  0  0  0
   -4.2850   -4.3477    0.3797 H   0  0  0  0  0  0  0  0  0  0  0  0
   -6.0422   -3.1408    1.6284 H   0  0  0  0  0  0  0  0  0  0  0  0
   -6.6238   -1.1964    3.0355 H   0  0  0  0  0  0  0  0  0  0  0  0
   -6.6172   -0.0094    1.7088 H   0  0  0  0  0  0  0  0  0  0  0  0
   -5.5579    0.2050    3.1257 H   0  0  0  0  0  0  0  0  0  0  0  0
   -3.6118    0.3851    1.6338 H   0  0  0  0  0  0  0  0  0  0  0  0
   -1.1747    3.3775    1.1086 H   0  0  0  0  0  0  0  0  0  0  0  0
  1  2  1  0
  2  3  2  0
  3  4  1  0
  4  5  2  0
  5  6  1  0
  6  7  1  0
  7  8  1  0
  8  9  1  0
  9 10  1  0
 10 11  2  0
 10 12  1  0
 12 13  1  0
 13 14  2  0
 13 15  2  0
 13 16  1  0
 16 17  2  0
 17 18  1  0
 18 19  2  0
 19 20  1  0
 20 21  2  0
  9 22  1  0
 22 23  1  0
 23 24  2  0
 24 25  1  0
 25 26  2  0
 26 27  1  0
 27 28  2  0
 22 29  1  0
 29 30  1  0
 30 31  2  0
 31 32  1  0
 32 33  2  0
 33 34  1  0
 34 35  1  0
 34 36  2  0
  6 37  2  0
 37  2  1  0
 29  7  1  0
 36 30  1  0
 21 16  1  0
 28 23  1  0
  1 38  1  0
  1 39  1  0
  1 40  1  0
  3 41  1  0
  4 42  1  0
  5 43  1  0
  7 44  1  0
  8 45  1  0
  8 46  1  0
  9 47  1  0
 12 48  1  0
 17 49  1  0
 18 50  1  0
 19 51  1  0
 20 52  1  0
 21 53  1  0
 22 54  1  0
 24 55  1  0
 25 56  1  0
 26 57  1  0
 27 58  1  0
 28 59  1  0
 31 60  1  0
 32 61  1  0
 33 62  1  0
 35 63  1  0
 35 64  1  0
 35 65  1  0
 36 66  1  0
 37 67  1  0
M  END
>  <smiles>  (6) 
Cc1cccc(C2CC(C(=O)NS(=O)(=O)c3ccccc3)C(c3ccccc3)N2c2cccc(C)c2)c1

>  <mol_id>  (6) 
run14a_mol_7

>  <run_id>  (6) 
run14a

>  <original_index>  (6) 
7

>  <Agent>  (6) 
10.6627

>  <Prior>  (6) 
21.8967

>  <Target>  (6) 
80.0669

>  <Score>  (6) 
0.6797573

>  <SMILES>  (6) 
Cc1cccc(C2CC(C(=O)NS(=O)(=O)c3ccccc3)C(c3ccccc3)N2c2cccc(C)c2)c1

>  <SMILES_state>  (6) 
1.0

>  <Input_Scaffold>  (6) 
c1ccc([*])cc1C1N([*])C(c2ccccc2)C(C(=O)N[*])C1

>  <R-groups>  (6) 
C*|c1ccc(C)cc1*|c1ccccc1S(*)(=O)=O

>  <Scaffold>  (6) 
O=C(NS(=O)(=O)c1ccccc1)C1CC(c2ccccc2)N(c2ccccc2)C1c1ccccc1

>  <DENV_Activity>  (6) 
0.947844

>  <DENV_Activity (raw)>  (6) 
7.5831

>  <Stereo_Centers>  (6) 
1e-05

>  <Stereo_Centers (raw)>  (6) 
3.0

>  <QED>  (6) 
0.339514

>  <QED (raw)>  (6) 
0.3395

>  <SA>  (6) 
0.3613592

>  <SA (raw)>  (6) 
3.3891

>  <MW>  (6) 
0.9941931

>  <MW (raw)>  (6) 
510.659

>  <Heavy_Atoms>  (6) 
0.885618

>  <Heavy_Atoms (raw)>  (6) 
37.0

>  <LogP>  (6) 
0.0057889

>  <LogP (raw)>  (6) 
6.1174

>  <TPSA>  (6) 
0.9999992

>  <TPSA (raw)>  (6) 
66.48

>  <HBA>  (6) 
0.8720069

>  <HBA (raw)>  (6) 
4.0

>  <HBD>  (6) 
0.9467598

>  <HBD (raw)>  (6) 
1.0

>  <Rotatable_Bonds>  (6) 
0.1279931

>  <Rotatable_Bonds (raw)>  (6) 
6.0

>  <Ring_Count>  (6) 
0.0031523

>  <Ring_Count (raw)>  (6) 
5.0

>  <Aromatic_Rings>  (6) 
1e-05

>  <Aromatic_Rings (raw)>  (6) 
4.0

>  <Stability_Alerts>  (6) 
1.0

>  <Stability_Alerts (raw)>  (6) 
1.0

>  <matchting_patterns (Stability_Alerts)>  (6) 
[]

>  <step>  (6) 
1.0

$$$$
run14a_mol_7
     RDKit          3D

 67 71  0  0  0  0  0  0  0  0999 V2000
   -3.1650   -2.2722   -4.1470 C   0  0  0  0  0  0  0  0  0  0  0  0
   -2.7298   -0.8716   -3.8311 C   0  0  0  0  0  0  0  0  0  0  0  0
   -2.8723    0.1466   -4.7782 C   0  0  0  0  0  0  0  0  0  0  0  0
   -2.5035    1.4535   -4.4662 C   0  0  0  0  0  0  0  0  0  0  0  0
   -1.9981    1.7547   -3.2012 C   0  0  0  0  0  0  0  0  0  0  0  0
   -1.8578    0.7545   -2.2237 C   0  0  0  0  0  0  0  0  0  0  0  0
   -1.2858    1.1348   -0.8636 C   0  0  0  0  0  0  0  0  0  0  0  0
    0.2534    1.1924   -0.9219 C   0  0  0  0  0  0  0  0  0  0  0  0
    0.6550   -0.2129   -0.4940 C   0  0  0  0  0  0  0  0  0  0  0  0
    2.1110   -0.4484   -0.1656 C   0  0  0  0  0  0  0  0  0  0  0  0
    2.6543   -1.4976   -0.4904 O   0  0  0  0  0  0  0  0  0  0  0  0
    2.7913    0.5620    0.5279 N   0  0  0  0  0  0  0  0  0  0  0  0
    4.3229    0.4156    1.1615 S   0  0  0  0  0  0  0  0  0  0  0  0
    4.5520    1.6459    1.8926 O   0  0  0  0  0  0  0  0  0  0  0  0
    4.4701   -0.8681    1.8090 O   0  0  0  0  0  0  0  0  0  0  0  0
    5.3482    0.4631   -0.2861 C   0  0  0  0  0  0  0  0  0  0  0  0
    5.8011    1.6935   -0.7734 C   0  0  0  0  0  0  0  0  0  0  0  0
    6.6280    1.7250   -1.8966 C   0  0  0  0  0  0  0  0  0  0  0  0
    7.0051    0.5343   -2.5203 C   0  0  0  0  0  0  0  0  0  0  0  0
    6.5625   -0.6920   -2.0212 C   0  0  0  0  0  0  0  0  0  0  0  0
    5.7373   -0.7318   -0.8975 C   0  0  0  0  0  0  0  0  0  0  0  0
   -0.3356   -0.5487    0.6341 C   0  0  0  0  0  0  0  0  0  0  0  0
    0.1432   -0.1229    2.0196 C   0  0  0  0  0  0  0  0  0  0  0  0
    0.9316   -1.0148    2.7691 C   0  0  0  0  0  0  0  0  0  0  0  0
    1.4540   -0.6416    4.0083 C   0  0  0  0  0  0  0  0  0  0  0  0
    1.1859    0.6218    4.5266 C   0  0  0  0  0  0  0  0  0  0  0  0
    0.3907    1.5113    3.8096 C   0  0  0  0  0  0  0  0  0  0  0  0
   -0.1259    1.1431    2.5659 C   0  0  0  0  0  0  0  0  0  0  0  0
   -1.5672    0.1620    0.2130 N   0  0  0  0  0  0  0  0  0  0  0  0
   -2.8144   -0.0321    0.7799 C   0  0  0  0  0  0  0  0  0  0  0  0
   -3.9319    0.7316    0.4048 C   0  0  0  0  0  0  0  0  0  0  0  0
   -5.1980    0.5341    0.9694 C   0  0  0  0  0  0  0  0  0  0  0  0
   -5.3858   -0.4391    1.9419 C   0  0  0  0  0  0  0  0  0  0  0  0
   -4.3052   -1.2130    2.3586 C   0  0  0  0  0  0  0  0  0  0  0  0
   -4.4889   -2.2905    3.3862 C   0  0  0  0  0  0  0  0  0  0  0  0
   -3.0452   -1.0104    1.7644 C   0  0  0  0  0  0  0  0  0  0  0  0
   -2.2332   -0.5574   -2.5579 C   0  0  0  0  0  0  0  0  0  0  0  0
   -3.0682   -2.4802   -5.2178 H   0  0  0  0  0  0  0  0  0  0  0  0
   -2.5436   -3.0020   -3.6175 H   0  0  0  0  0  0  0  0  0  0  0  0
   -4.2092   -2.4147   -3.8523 H   0  0  0  0  0  0  0  0  0  0  0  0
   -3.2746   -0.0730   -5.7645 H   0  0  0  0  0  0  0  0  0  0  0  0
   -2.6146    2.2391   -5.2091 H   0  0  0  0  0  0  0  0  0  0  0  0
   -1.7182    2.7827   -2.9804 H   0  0  0  0  0  0  0  0  0  0  0  0
   -1.6605    2.1270   -0.5801 H   0  0  0  0  0  0  0  0  0  0  0  0
    0.6542    1.4540   -1.9071 H   0  0  0  0  0  0  0  0  0  0  0  0
    0.6153    1.9493   -0.2177 H   0  0  0  0  0  0  0  0  0  0  0  0
    0.4393   -0.8797   -1.3426 H   0  0  0  0  0  0  0  0  0  0  0  0
    2.3146    1.3798    0.8943 H   0  0  0  0  0  0  0  0  0  0  0  0
    5.5228    2.6239   -0.2841 H   0  0  0  0  0  0  0  0  0  0  0  0
    6.9857    2.6764   -2.2829 H   0  0  0  0  0  0  0  0  0  0  0  0
    7.6517    0.5608   -3.3943 H   0  0  0  0  0  0  0  0  0  0  0  0
    6.8627   -1.6179   -2.5059 H   0  0  0  0  0  0  0  0  0  0  0  0
    5.3959   -1.6904   -0.5106 H   0  0  0  0  0  0  0  0  0  0  0  0
   -0.5132   -1.6323    0.6296 H   0  0  0  0  0  0  0  0  0  0  0  0
    1.1708   -2.0051    2.3831 H   0  0  0  0  0  0  0  0  0  0  0  0
    2.0810   -1.3357    4.5632 H   0  0  0  0  0  0  0  0  0  0  0  0
    1.5949    0.9110    5.4913 H   0  0  0  0  0  0  0  0  0  0  0  0
    0.1683    2.4924    4.2216 H   0  0  0  0  0  0  0  0  0  0  0  0
   -0.7565    1.8532    2.0358 H   0  0  0  0  0  0  0  0  0  0  0  0
   -3.8517    1.5044   -0.3536 H   0  0  0  0  0  0  0  0  0  0  0  0
   -6.0357    1.1428    0.6400 H   0  0  0  0  0  0  0  0  0  0  0  0
   -6.3737   -0.5883    2.3696 H   0  0  0  0  0  0  0  0  0  0  0  0
   -5.3301   -2.0621    4.0492 H   0  0  0  0  0  0  0  0  0  0  0  0
   -4.6793   -3.2488    2.8933 H   0  0  0  0  0  0  0  0  0  0  0  0
   -3.5971   -2.3841    4.0148 H   0  0  0  0  0  0  0  0  0  0  0  0
   -2.2331   -1.6477    2.1028 H   0  0  0  0  0  0  0  0  0  0  0  0
   -2.1519   -1.3493   -1.8153 H   0  0  0  0  0  0  0  0  0  0  0  0
  1  2  1  0
  2  3  2  0
  3  4  1  0
  4  5  2  0
  5  6  1  0
  6  7  1  0
  7  8  1  0
  8  9  1  0
  9 10  1  0
 10 11  2  0
 10 12  1  0
 12 13  1  0
 13 14  2  0
 13 15  2  0
 13 16  1  0
 16 17  2  0
 17 18  1  0
 18 19  2  0
 19 20  1  0
 20 21  2  0
  9 22  1  0
 22 23  1  0
 23 24  2  0
 24 25  1  0
 25 26  2  0
 26 27  1  0
 27 28  2  0
 22 29  1  0
 29 30  1  0
 30 31  2  0
 31 32  1  0
 32 33  2  0
 33 34  1  0
 34 35  1  0
 34 36  2  0
  6 37  2  0
 37  2  1  0
 29  7  1  0
 36 30  1  0
 21 16  1  0
 28 23  1  0
  1 38  1  0
  1 39  1  0
  1 40  1  0
  3 41  1  0
  4 42  1  0
  5 43  1  0
  7 44  1  0
  8 45  1  0
  8 46  1  0
  9 47  1  0
 12 48  1  0
 17 49  1  0
 18 50  1  0
 19 51  1  0
 20 52  1  0
 21 53  1  0
 22 54  1  0
 24 55  1  0
 25 56  1  0
 26 57  1  0
 27 58  1  0
 28 59  1  0
 31 60  1  0
 32 61  1  0
 33 62  1  0
 35 63  1  0
 35 64  1  0
 35 65  1  0
 36 66  1  0
 37 67  1  0
M  END
>  <smiles>  (7) 
Cc1cccc(C2CC(C(=O)NS(=O)(=O)c3ccccc3)C(c3ccccc3)N2c2cccc(C)c2)c1

>  <mol_id>  (7) 
run14a_mol_7

>  <run_id>  (7) 
run14a

>  <original_index>  (7) 
7

>  <Agent>  (7) 
10.6627

>  <Prior>  (7) 
21.8967

>  <Target>  (7) 
80.0669

>  <Score>  (7) 
0.6797573

>  <SMILES>  (7) 
Cc1cccc(C2CC(C(=O)NS(=O)(=O)c3ccccc3)C(c3ccccc3)N2c2cccc(C)c2)c1

>  <SMILES_state>  (7) 
1.0

>  <Input_Scaffold>  (7) 
c1ccc([*])cc1C1N([*])C(c2ccccc2)C(C(=O)N[*])C1

>  <R-groups>  (7) 
C*|c1ccc(C)cc1*|c1ccccc1S(*)(=O)=O

>  <Scaffold>  (7) 
O=C(NS(=O)(=O)c1ccccc1)C1CC(c2ccccc2)N(c2ccccc2)C1c1ccccc1

>  <DENV_Activity>  (7) 
0.947844

>  <DENV_Activity (raw)>  (7) 
7.5831

>  <Stereo_Centers>  (7) 
1e-05

>  <Stereo_Centers (raw)>  (7) 
3.0

>  <QED>  (7) 
0.339514

>  <QED (raw)>  (7) 
0.3395

>  <SA>  (7) 
0.3613592

>  <SA (raw)>  (7) 
3.3891

>  <MW>  (7) 
0.9941931

>  <MW (raw)>  (7) 
510.659

>  <Heavy_Atoms>  (7) 
0.885618

>  <Heavy_Atoms (raw)>  (7) 
37.0

>  <LogP>  (7) 
0.0057889

>  <LogP (raw)>  (7) 
6.1174

>  <TPSA>  (7) 
0.9999992

>  <TPSA (raw)>  (7) 
66.48

>  <HBA>  (7) 
0.8720069

>  <HBA (raw)>  (7) 
4.0

>  <HBD>  (7) 
0.9467598

>  <HBD (raw)>  (7) 
1.0

>  <Rotatable_Bonds>  (7) 
0.1279931

>  <Rotatable_Bonds (raw)>  (7) 
6.0

>  <Ring_Count>  (7) 
0.0031523

>  <Ring_Count (raw)>  (7) 
5.0

>  <Aromatic_Rings>  (7) 
1e-05

>  <Aromatic_Rings (raw)>  (7) 
4.0

>  <Stability_Alerts>  (7) 
1.0

>  <Stability_Alerts (raw)>  (7) 
1.0

>  <matchting_patterns (Stability_Alerts)>  (7) 
[]

>  <step>  (7) 
1.0

$$$$
run14a_mol_7
     RDKit          3D

 67 71  0  0  0  0  0  0  0  0999 V2000
   -0.0619    4.3785   -0.0244 C   0  0  0  0  0  0  0  0  0  0  0  0
   -0.5828    3.4142   -1.0484 C   0  0  0  0  0  0  0  0  0  0  0  0
   -1.1301    3.8988   -2.2393 C   0  0  0  0  0  0  0  0  0  0  0  0
   -1.6346    3.0155   -3.1869 C   0  0  0  0  0  0  0  0  0  0  0  0
   -1.5861    1.6416   -2.9524 C   0  0  0  0  0  0  0  0  0  0  0  0
   -1.0088    1.1159   -1.7788 C   0  0  0  0  0  0  0  0  0  0  0  0
   -1.0266   -0.3987   -1.5886 C   0  0  0  0  0  0  0  0  0  0  0  0
   -0.2730   -1.1124   -2.7360 C   0  0  0  0  0  0  0  0  0  0  0  0
    0.8717   -1.8756   -2.0889 C   0  0  0  0  0  0  0  0  0  0  0  0
    2.1861   -1.1240   -2.1379 C   0  0  0  0  0  0  0  0  0  0  0  0
    3.0891   -1.4935   -2.8776 O   0  0  0  0  0  0  0  0  0  0  0  0
    2.3048   -0.0065   -1.2967 N   0  0  0  0  0  0  0  0  0  0  0  0
    3.7866    0.6293   -0.8767 S   0  0  0  0  0  0  0  0  0  0  0  0
    4.2441    1.4847   -1.9485 O   0  0  0  0  0  0  0  0  0  0  0  0
    4.6001   -0.4298   -0.3200 O   0  0  0  0  0  0  0  0  0  0  0  0
    3.3423    1.6744    0.4943 C   0  0  0  0  0  0  0  0  0  0  0  0
    3.5246    3.0563    0.4121 C   0  0  0  0  0  0  0  0  0  0  0  0
    3.1986    3.8545    1.5088 C   0  0  0  0  0  0  0  0  0  0  0  0
    2.6847    3.2740    2.6704 C   0  0  0  0  0  0  0  0  0  0  0  0
    2.5055    1.8919    2.7471 C   0  0  0  0  0  0  0  0  0  0  0  0
    2.8441    1.0850    1.6620 C   0  0  0  0  0  0  0  0  0  0  0  0
    0.4354   -2.1083   -0.6449 C   0  0  0  0  0  0  0  0  0  0  0  0
   -0.2507   -3.4645   -0.5001 C   0  0  0  0  0  0  0  0  0  0  0  0
   -1.6395   -3.6523   -0.5532 C   0  0  0  0  0  0  0  0  0  0  0  0
   -2.1966   -4.9290   -0.4391 C   0  0  0  0  0  0  0  0  0  0  0  0
   -1.3749   -6.0408   -0.2768 C   0  0  0  0  0  0  0  0  0  0  0  0
    0.0058   -5.8783   -0.2262 C   0  0  0  0  0  0  0  0  0  0  0  0
    0.5630   -4.6029   -0.3376 C   0  0  0  0  0  0  0  0  0  0  0  0
   -0.4019   -0.9156   -0.3431 N   0  0  0  0  0  0  0  0  0  0  0  0
   -0.9864   -0.7833    0.9174 C   0  0  0  0  0  0  0  0  0  0  0  0
   -0.3565   -1.2794    2.0722 C   0  0  0  0  0  0  0  0  0  0  0  0
   -0.9100   -1.1260    3.3484 C   0  0  0  0  0  0  0  0  0  0  0  0
   -2.1190   -0.4622    3.5106 C   0  0  0  0  0  0  0  0  0  0  0  0
   -2.7842    0.0422    2.3952 C   0  0  0  0  0  0  0  0  0  0  0  0
   -4.0714    0.7972    2.5514 C   0  0  0  0  0  0  0  0  0  0  0  0
   -2.2060   -0.1124    1.1216 C   0  0  0  0  0  0  0  0  0  0  0  0
   -0.5092    2.0281   -0.8352 C   0  0  0  0  0  0  0  0  0  0  0  0
    0.0604    3.8956    0.9500 H   0  0  0  0  0  0  0  0  0  0  0  0
   -0.7644    5.2076    0.1119 H   0  0  0  0  0  0  0  0  0  0  0  0
    0.9033    4.7801   -0.3458 H   0  0  0  0  0  0  0  0  0  0  0  0
   -1.1767    4.9691   -2.4274 H   0  0  0  0  0  0  0  0  0  0  0  0
   -2.0725    3.3968   -4.1058 H   0  0  0  0  0  0  0  0  0  0  0  0
   -2.0091    0.9765   -3.7037 H   0  0  0  0  0  0  0  0  0  0  0  0
   -2.0772   -0.7165   -1.6300 H   0  0  0  0  0  0  0  0  0  0  0  0
   -0.9584   -1.8263   -3.2114 H   0  0  0  0  0  0  0  0  0  0  0  0
    0.0833   -0.4419   -3.5257 H   0  0  0  0  0  0  0  0  0  0  0  0
    1.0440   -2.8162   -2.6285 H   0  0  0  0  0  0  0  0  0  0  0  0
    1.5169    0.2572   -0.7057 H   0  0  0  0  0  0  0  0  0  0  0  0
    3.9250    3.5150   -0.4894 H   0  0  0  0  0  0  0  0  0  0  0  0
    3.3434    4.9312    1.4580 H   0  0  0  0  0  0  0  0  0  0  0  0
    2.4289    3.9010    3.5215 H   0  0  0  0  0  0  0  0  0  0  0  0
    2.1121    1.4447    3.6570 H   0  0  0  0  0  0  0  0  0  0  0  0
    2.7305    0.0064    1.7367 H   0  0  0  0  0  0  0  0  0  0  0  0
    1.3123   -2.1085    0.0157 H   0  0  0  0  0  0  0  0  0  0  0  0
   -2.3155   -2.8105   -0.6664 H   0  0  0  0  0  0  0  0  0  0  0  0
   -3.2762   -5.0528   -0.4718 H   0  0  0  0  0  0  0  0  0  0  0  0
   -1.8110   -7.0322   -0.1870 H   0  0  0  0  0  0  0  0  0  0  0  0
    0.6507   -6.7444   -0.0999 H   0  0  0  0  0  0  0  0  0  0  0  0
    1.6470   -4.5052   -0.2982 H   0  0  0  0  0  0  0  0  0  0  0  0
    0.5952   -1.7983    2.0140 H   0  0  0  0  0  0  0  0  0  0  0  0
   -0.3900   -1.5268    4.2147 H   0  0  0  0  0  0  0  0  0  0  0  0
   -2.5368   -0.3425    4.5071 H   0  0  0  0  0  0  0  0  0  0  0  0
   -4.6053    0.4818    3.4539 H   0  0  0  0  0  0  0  0  0  0  0  0
   -4.7357    0.6128    1.7006 H   0  0  0  0  0  0  0  0  0  0  0  0
   -3.8691    1.8706    2.6190 H   0  0  0  0  0  0  0  0  0  0  0  0
   -2.7472    0.3136    0.2810 H   0  0  0  0  0  0  0  0  0  0  0  0
   -0.0841    1.6756    0.1014 H   0  0  0  0  0  0  0  0  0  0  0  0
  1  2  1  0
  2  3  2  0
  3  4  1  0
  4  5  2  0
  5  6  1  0
  6  7  1  0
  7  8  1  0
  8  9  1  0
  9 10  1  0
 10 11  2  0
 10 12  1  0
 12 13  1  0
 13 14  2  0
 13 15  2  0
 13 16  1  0
 16 17  2  0
 17 18  1  0
 18 19  2  0
 19 20  1  0
 20 21  2  0
  9 22  1  0
 22 23  1  0
 23 24  2  0
 24 25  1  0
 25 26  2  0
 26 27  1  0
 27 28  2  0
 22 29  1  0
 29 30  1  0
 30 31  2  0
 31 32  1  0
 32 33  2  0
 33 34  1  0
 34 35  1  0
 34 36  2  0
  6 37  2  0
 37  2  1  0
 29  7  1  0
 36 30  1  0
 21 16  1  0
 28 23  1  0
  1 38  1  0
  1 39  1  0
  1 40  1  0
  3 41  1  0
  4 42  1  0
  5 43  1  0
  7 44  1  0
  8 45  1  0
  8 46  1  0
  9 47  1  0
 12 48  1  0
 17 49  1  0
 18 50  1  0
 19 51  1  0
 20 52  1  0
 21 53  1  0
 22 54  1  0
 24 55  1  0
 25 56  1  0
 26 57  1  0
 27 58  1  0
 28 59  1  0
 31 60  1  0
 32 61  1  0
 33 62  1  0
 35 63  1  0
 35 64  1  0
 35 65  1  0
 36 66  1  0
 37 67  1  0
M  END
>  <smiles>  (8) 
Cc1cccc(C2CC(C(=O)NS(=O)(=O)c3ccccc3)C(c3ccccc3)N2c2cccc(C)c2)c1

>  <mol_id>  (8) 
run14a_mol_7

>  <run_id>  (8) 
run14a

>  <original_index>  (8) 
7

>  <Agent>  (8) 
10.6627

>  <Prior>  (8) 
21.8967

>  <Target>  (8) 
80.0669

>  <Score>  (8) 
0.6797573

>  <SMILES>  (8) 
Cc1cccc(C2CC(C(=O)NS(=O)(=O)c3ccccc3)C(c3ccccc3)N2c2cccc(C)c2)c1

>  <SMILES_state>  (8) 
1.0

>  <Input_Scaffold>  (8) 
c1ccc([*])cc1C1N([*])C(c2ccccc2)C(C(=O)N[*])C1

>  <R-groups>  (8) 
C*|c1ccc(C)cc1*|c1ccccc1S(*)(=O)=O

>  <Scaffold>  (8) 
O=C(NS(=O)(=O)c1ccccc1)C1CC(c2ccccc2)N(c2ccccc2)C1c1ccccc1

>  <DENV_Activity>  (8) 
0.947844

>  <DENV_Activity (raw)>  (8) 
7.5831

>  <Stereo_Centers>  (8) 
1e-05

>  <Stereo_Centers (raw)>  (8) 
3.0

>  <QED>  (8) 
0.339514

>  <QED (raw)>  (8) 
0.3395

>  <SA>  (8) 
0.3613592

>  <SA (raw)>  (8) 
3.3891

>  <MW>  (8) 
0.9941931

>  <MW (raw)>  (8) 
510.659

>  <Heavy_Atoms>  (8) 
0.885618

>  <Heavy_Atoms (raw)>  (8) 
37.0

>  <LogP>  (8) 
0.0057889

>  <LogP (raw)>  (8) 
6.1174

>  <TPSA>  (8) 
0.9999992

>  <TPSA (raw)>  (8) 
66.48

>  <HBA>  (8) 
0.8720069

>  <HBA (raw)>  (8) 
4.0

>  <HBD>  (8) 
0.9467598

>  <HBD (raw)>  (8) 
1.0

>  <Rotatable_Bonds>  (8) 
0.1279931

>  <Rotatable_Bonds (raw)>  (8) 
6.0

>  <Ring_Count>  (8) 
0.0031523

>  <Ring_Count (raw)>  (8) 
5.0

>  <Aromatic_Rings>  (8) 
1e-05

>  <Aromatic_Rings (raw)>  (8) 
4.0

>  <Stability_Alerts>  (8) 
1.0

>  <Stability_Alerts (raw)>  (8) 
1.0

>  <matchting_patterns (Stability_Alerts)>  (8) 
[]

>  <step>  (8) 
1.0

$$$$
