run14a_mol_6
     RDKit          3D

 53 55  0  0  0  0  0  0  0  0999 V2000
   -0.7993   -2.9939    1.4174 C   0  0  0  0  0  0  0  0  0  0  0  0
   -1.2964   -1.9764    0.3963 C   0  0  0  0  0  0  0  0  0  0  0  0
   -0.6362   -0.6857    0.5368 N   0  0  0  0  0  0  0  0  0  0  0  0
   -1.2989    0.4588   -0.0938 C   0  0  0  0  0  0  0  0  0  0  0  0
   -2.6399    0.8339    0.5025 C   0  0  0  0  0  0  0  0  0  0  0  0
   -2.8424    0.8769    1.8906 C   0  0  0  0  0  0  0  0  0  0  0  0
   -4.0828    1.2329    2.4189 C   0  0  0  0  0  0  0  0  0  0  0  0
   -5.1374    1.5592    1.5679 C   0  0  0  0  0  0  0  0  0  0  0  0
   -4.9574    1.5428    0.1809 C   0  0  0  0  0  0  0  0  0  0  0  0
   -6.1011    1.8617   -0.7360 C   0  0  0  0  0  0  0  0  0  0  0  0
   -3.7111    1.1692   -0.3423 C   0  0  0  0  0  0  0  0  0  0  0  0
   -0.2723    1.5729    0.1165 C   0  0  0  0  0  0  0  0  0  0  0  0
    1.0521    0.8707   -0.1471 C   0  0  0  0  0  0  0  0  0  0  0  0
    2.2353    1.4461    0.5969 C   0  0  0  0  0  0  0  0  0  0  0  0
    2.1383    2.1842    1.5652 O   0  0  0  0  0  0  0  0  0  0  0  0
    3.4812    1.0908    0.0536 N   0  0  0  0  0  0  0  0  0  0  0  0
    4.9194    1.1891    0.8723 S   0  0  0  0  0  0  0  0  0  0  0  0
    5.1743    2.9434    1.0546 C   0  0  0  0  0  0  0  0  0  0  0  0
    5.9110    0.6908   -0.0585 O   0  0  0  0  0  0  0  0  0  0  0  0
    4.7531    0.5734    2.1686 O   0  0  0  0  0  0  0  0  0  0  0  0
    0.8159   -0.5849    0.3014 C   0  0  0  0  0  0  0  0  0  0  0  0
    1.4509   -1.5341   -0.7088 C   0  0  0  0  0  0  0  0  0  0  0  0
    1.0082   -1.6326   -2.0381 C   0  0  0  0  0  0  0  0  0  0  0  0
    1.6551   -2.4723   -2.9471 C   0  0  0  0  0  0  0  0  0  0  0  0
    2.7588   -3.2196   -2.5444 C   0  0  0  0  0  0  0  0  0  0  0  0
    3.2153   -3.1311   -1.2323 C   0  0  0  0  0  0  0  0  0  0  0  0
    2.5676   -2.2953   -0.3215 C   0  0  0  0  0  0  0  0  0  0  0  0
    0.2518   -3.2536    1.2696 H   0  0  0  0  0  0  0  0  0  0  0  0
   -0.9184   -2.6146    2.4382 H   0  0  0  0  0  0  0  0  0  0  0  0
   -1.3815   -3.9178    1.3357 H   0  0  0  0  0  0  0  0  0  0  0  0
   -1.2075   -2.3804   -0.6169 H   0  0  0  0  0  0  0  0  0  0  0  0
   -2.3726   -1.8649    0.5750 H   0  0  0  0  0  0  0  0  0  0  0  0
   -1.4119    0.2662   -1.1689 H   0  0  0  0  0  0  0  0  0  0  0  0
   -2.0297    0.6213    2.5683 H   0  0  0  0  0  0  0  0  0  0  0  0
   -4.2267    1.2521    3.4960 H   0  0  0  0  0  0  0  0  0  0  0  0
   -6.1010    1.8273    1.9949 H   0  0  0  0  0  0  0  0  0  0  0  0
   -5.7414    2.3172   -1.6646 H   0  0  0  0  0  0  0  0  0  0  0  0
   -6.7889    2.5753   -0.2702 H   0  0  0  0  0  0  0  0  0  0  0  0
   -6.6512    0.9476   -0.9795 H   0  0  0  0  0  0  0  0  0  0  0  0
   -3.5765    1.1394   -1.4218 H   0  0  0  0  0  0  0  0  0  0  0  0
   -0.3136    1.9850    1.1326 H   0  0  0  0  0  0  0  0  0  0  0  0
   -0.4301    2.4081   -0.5755 H   0  0  0  0  0  0  0  0  0  0  0  0
    1.2568    0.9554   -1.2229 H   0  0  0  0  0  0  0  0  0  0  0  0
    3.5459    0.5022   -0.7753 H   0  0  0  0  0  0  0  0  0  0  0  0
    4.4231    3.3553    1.7286 H   0  0  0  0  0  0  0  0  0  0  0  0
    5.1233    3.4120    0.0701 H   0  0  0  0  0  0  0  0  0  0  0  0
    6.1687    3.0914    1.4819 H   0  0  0  0  0  0  0  0  0  0  0  0
    1.2890   -0.7584    1.2774 H   0  0  0  0  0  0  0  0  0  0  0  0
    0.1490   -1.0607   -2.3792 H   0  0  0  0  0  0  0  0  0  0  0  0
    1.2962   -2.5450   -3.9708 H   0  0  0  0  0  0  0  0  0  0  0  0
    3.2621   -3.8738   -3.2518 H   0  0  0  0  0  0  0  0  0  0  0  0
    4.0771   -3.7139   -0.9153 H   0  0  0  0  0  0  0  0  0  0  0  0
    2.9467   -2.2436    0.6990 H   0  0  0  0  0  0  0  0  0  0  0  0
  1  2  1  0
  2  3  1  0
  3  4  1  0
  4  5  1  0
  5  6  2  0
  6  7  1  0
  7  8  2  0
  8  9  1  0
  9 10  1  0
  9 11  2  0
  4 12  1  0
 12 13  1  0
 13 14  1  0
 14 15  2  0
 14 16  1  0
 16 17  1  0
 17 18  1  0
 17 19  2  0
 17 20  2  0
 13 21  1  0
 21 22  1  0
 22 23  2  0
 23 24  1  0
 24 25  2  0
 25 26  1  0
 26 27  2  0
 21  3  1  0
 27 22  1  0
 11  5  1  0
  1 28  1  0
  1 29  1  0
  1 30  1  0
  2 31  1  0
  2 32  1  0
  4 33  1  0
  6 34  1  0
  7 35  1  0
  8 36  1  0
 10 37  1  0
 10 38  1  0
 10 39  1  0
 11 40  1  0
 12 41  1  0
 12 42  1  0
 13 43  1  0
 16 44  1  0
 18 45  1  0
 18 46  1  0
 18 47  1  0
 21 48  1  0
 23 49  1  0
 24 50  1  0
 25 51  1  0
 26 52  1  0
 27 53  1  0
M  END
>  <smiles>  (1) 
CCN1C(c2cccc(C)c2)CC(C(=O)NS(C)(=O)=O)C1c1ccccc1

>  <mol_id>  (1) 
run14a_mol_6

>  <run_id>  (1) 
run14a

>  <original_index>  (1) 
6

>  <Agent>  (1) 
12.3087

>  <Prior>  (1) 
8.1761

>  <Target>  (1) 
109.601

>  <Score>  (1) 
0.7851807

>  <SMILES>  (1) 
CCN1C(c2cccc(C)c2)CC(C(=O)NS(C)(=O)=O)C1c1ccccc1

>  <SMILES_state>  (1) 
1.0

>  <Input_Scaffold>  (1) 
c1ccc([*])cc1C1N([*])C(c2ccccc2)C(C(=O)N[*])C1

>  <R-groups>  (1) 
C*|CC*|S(*)(C)(=O)=O

>  <Scaffold>  (1) 
c1ccc(C2CCC(c3ccccc3)N2)cc1

>  <DENV_Activity>  (1) 
0.9466996

>  <DENV_Activity (raw)>  (1) 
7.5943

>  <Stereo_Centers>  (1) 
1e-05

>  <Stereo_Centers (raw)>  (1) 
3.0

>  <QED>  (1) 
0.8569778

>  <QED (raw)>  (1) 
0.857

>  <SA>  (1) 
0.296995

>  <SA (raw)>  (1) 
3.4605

>  <MW>  (1) 
0.9996137

>  <MW (raw)>  (1) 
386.517

>  <Heavy_Atoms>  (1) 
0.9090909

>  <Heavy_Atoms (raw)>  (1) 
27.0

>  <LogP>  (1) 
0.9997545

>  <LogP (raw)>  (1) 
3.195

>  <TPSA>  (1) 
0.9999992

>  <TPSA (raw)>  (1) 
66.48

>  <HBA>  (1) 
0.8720069

>  <HBA (raw)>  (1) 
4.0

>  <HBD>  (1) 
0.9467598

>  <HBD (raw)>  (1) 
1.0

>  <Rotatable_Bonds>  (1) 
0.3453354

>  <Rotatable_Bonds (raw)>  (1) 
5.0

>  <Ring_Count>  (1) 
0.8720069

>  <Ring_Count (raw)>  (1) 
3.0

>  <Aromatic_Rings>  (1) 
0.5

>  <Aromatic_Rings (raw)>  (1) 
2.0

>  <Stability_Alerts>  (1) 
1.0

>  <Stability_Alerts (raw)>  (1) 
1.0

>  <matchting_patterns (Stability_Alerts)>  (1) 
[]

>  <step>  (1) 
1.0

$$$$
run14a_mol_6
     RDKit          3D

 53 55  0  0  0  0  0  0  0  0999 V2000
    0.2875   -1.1474   -2.6884 C   0  0  0  0  0  0  0  0  0  0  0  0
    0.7033   -1.7472   -1.3476 C   0  0  0  0  0  0  0  0  0  0  0  0
    0.3911   -0.9777   -0.1365 N   0  0  0  0  0  0  0  0  0  0  0  0
    0.9492    0.3802   -0.0925 C   0  0  0  0  0  0  0  0  0  0  0  0
    2.4560    0.4477    0.0275 C   0  0  0  0  0  0  0  0  0  0  0  0
    3.1609   -0.3846    0.9104 C   0  0  0  0  0  0  0  0  0  0  0  0
    4.5476   -0.2908    1.0240 C   0  0  0  0  0  0  0  0  0  0  0  0
    5.2506    0.6355    0.2556 C   0  0  0  0  0  0  0  0  0  0  0  0
    4.5741    1.4684   -0.6415 C   0  0  0  0  0  0  0  0  0  0  0  0
    5.3268    2.4869   -1.4459 C   0  0  0  0  0  0  0  0  0  0  0  0
    3.1781    1.3778   -0.7387 C   0  0  0  0  0  0  0  0  0  0  0  0
    0.2554    0.9855    1.1321 C   0  0  0  0  0  0  0  0  0  0  0  0
   -1.1015    0.2841    1.2013 C   0  0  0  0  0  0  0  0  0  0  0  0
   -2.2865    1.1868    0.9295 C   0  0  0  0  0  0  0  0  0  0  0  0
   -3.2714    1.1930    1.6552 O   0  0  0  0  0  0  0  0  0  0  0  0
   -2.2023    2.0183   -0.1992 N   0  0  0  0  0  0  0  0  0  0  0  0
   -3.5083    2.7421   -0.9230 S   0  0  0  0  0  0  0  0  0  0  0  0
   -4.0584    3.9268    0.2900 C   0  0  0  0  0  0  0  0  0  0  0  0
   -2.9407    3.4739   -2.0368 O   0  0  0  0  0  0  0  0  0  0  0  0
   -4.5245    1.7393   -1.1419 O   0  0  0  0  0  0  0  0  0  0  0  0
   -1.0490   -0.8409    0.1564 C   0  0  0  0  0  0  0  0  0  0  0  0
   -1.6995   -2.1065    0.6835 C   0  0  0  0  0  0  0  0  0  0  0  0
   -3.0387   -2.3811    0.3626 C   0  0  0  0  0  0  0  0  0  0  0  0
   -3.6696   -3.5235    0.8587 C   0  0  0  0  0  0  0  0  0  0  0  0
   -2.9740   -4.4029    1.6854 C   0  0  0  0  0  0  0  0  0  0  0  0
   -1.6480   -4.1395    2.0207 C   0  0  0  0  0  0  0  0  0  0  0  0
   -1.0160   -2.9969    1.5274 C   0  0  0  0  0  0  0  0  0  0  0  0
    0.7940   -0.1983   -2.8856 H   0  0  0  0  0  0  0  0  0  0  0  0
   -0.7924   -0.9877   -2.7508 H   0  0  0  0  0  0  0  0  0  0  0  0
    0.5617   -1.8339   -3.4968 H   0  0  0  0  0  0  0  0  0  0  0  0
    1.7843   -1.9309   -1.3783 H   0  0  0  0  0  0  0  0  0  0  0  0
    0.2567   -2.7455   -1.2640 H   0  0  0  0  0  0  0  0  0  0  0  0
    0.6252    0.9458   -0.9755 H   0  0  0  0  0  0  0  0  0  0  0  0
    2.6269   -1.1165    1.5133 H   0  0  0  0  0  0  0  0  0  0  0  0
    5.0800   -0.9412    1.7130 H   0  0  0  0  0  0  0  0  0  0  0  0
    6.3313    0.7009    0.3592 H   0  0  0  0  0  0  0  0  0  0  0  0
    5.3815    3.4315   -0.8962 H   0  0  0  0  0  0  0  0  0  0  0  0
    6.3440    2.1425   -1.6600 H   0  0  0  0  0  0  0  0  0  0  0  0
    4.8355    2.6644   -2.4084 H   0  0  0  0  0  0  0  0  0  0  0  0
    2.6520    2.0394   -1.4244 H   0  0  0  0  0  0  0  0  0  0  0  0
    0.8089    0.7659    2.0549 H   0  0  0  0  0  0  0  0  0  0  0  0
    0.1861    2.0765    1.0606 H   0  0  0  0  0  0  0  0  0  0  0  0
   -1.2270   -0.1046    2.2214 H   0  0  0  0  0  0  0  0  0  0  0  0
   -1.3734    2.0636   -0.7823 H   0  0  0  0  0  0  0  0  0  0  0  0
   -3.2162    4.5621    0.5703 H   0  0  0  0  0  0  0  0  0  0  0  0
   -4.4658    3.4043    1.1555 H   0  0  0  0  0  0  0  0  0  0  0  0
   -4.8404    4.5344   -0.1711 H   0  0  0  0  0  0  0  0  0  0  0  0
   -1.5779   -0.5339   -0.7543 H   0  0  0  0  0  0  0  0  0  0  0  0
   -3.6077   -1.7037   -0.2725 H   0  0  0  0  0  0  0  0  0  0  0  0
   -4.7070   -3.7234    0.6028 H   0  0  0  0  0  0  0  0  0  0  0  0
   -3.4670   -5.2911    2.0713 H   0  0  0  0  0  0  0  0  0  0  0  0
   -1.1049   -4.8227    2.6682 H   0  0  0  0  0  0  0  0  0  0  0  0
    0.0194   -2.8051    1.8015 H   0  0  0  0  0  0  0  0  0  0  0  0
  1  2  1  0
  2  3  1  0
  3  4  1  0
  4  5  1  0
  5  6  2  0
  6  7  1  0
  7  8  2  0
  8  9  1  0
  9 10  1  0
  9 11  2  0
  4 12  1  0
 12 13  1  0
 13 14  1  0
 14 15  2  0
 14 16  1  0
 16 17  1  0
 17 18  1  0
 17 19  2  0
 17 20  2  0
 13 21  1  0
 21 22  1  0
 22 23  2  0
 23 24  1  0
 24 25  2  0
 25 26  1  0
 26 27  2  0
 21  3  1  0
 27 22  1  0
 11  5  1  0
  1 28  1  0
  1 29  1  0
  1 30  1  0
  2 31  1  0
  2 32  1  0
  4 33  1  0
  6 34  1  0
  7 35  1  0
  8 36  1  0
 10 37  1  0
 10 38  1  0
 10 39  1  0
 11 40  1  0
 12 41  1  0
 12 42  1  0
 13 43  1  0
 16 44  1  0
 18 45  1  0
 18 46  1  0
 18 47  1  0
 21 48  1  0
 23 49  1  0
 24 50  1  0
 25 51  1  0
 26 52  1  0
 27 53  1  0
M  END
>  <smiles>  (2) 
CCN1C(c2cccc(C)c2)CC(C(=O)NS(C)(=O)=O)C1c1ccccc1

>  <mol_id>  (2) 
run14a_mol_6

>  <run_id>  (2) 
run14a

>  <original_index>  (2) 
6

>  <Agent>  (2) 
12.3087

>  <Prior>  (2) 
8.1761

>  <Target>  (2) 
109.601

>  <Score>  (2) 
0.7851807

>  <SMILES>  (2) 
CCN1C(c2cccc(C)c2)CC(C(=O)NS(C)(=O)=O)C1c1ccccc1

>  <SMILES_state>  (2) 
1.0

>  <Input_Scaffold>  (2) 
c1ccc([*])cc1C1N([*])C(c2ccccc2)C(C(=O)N[*])C1

>  <R-groups>  (2) 
C*|CC*|S(*)(C)(=O)=O

>  <Scaffold>  (2) 
c1ccc(C2CCC(c3ccccc3)N2)cc1

>  <DENV_Activity>  (2) 
0.9466996

>  <DENV_Activity (raw)>  (2) 
7.5943

>  <Stereo_Centers>  (2) 
1e-05

>  <Stereo_Centers (raw)>  (2) 
3.0

>  <QED>  (2) 
0.8569778

>  <QED (raw)>  (2) 
0.857

>  <SA>  (2) 
0.296995

>  <SA (raw)>  (2) 
3.4605

>  <MW>  (2) 
0.9996137

>  <MW (raw)>  (2) 
386.517

>  <Heavy_Atoms>  (2) 
0.9090909

>  <Heavy_Atoms (raw)>  (2) 
27.0

>  <LogP>  (2) 
0.9997545

>  <LogP (raw)>  (2) 
3.195

>  <TPSA>  (2) 
0.9999992

>  <TPSA (raw)>  (2) 
66.48

>  <HBA>  (2) 
0.8720069

>  <HBA (raw)>  (2) 
4.0

>  <HBD>  (2) 
0.9467598

>  <HBD (raw)>  (2) 
1.0

>  <Rotatable_Bonds>  (2) 
0.3453354

>  <Rotatable_Bonds (raw)>  (2) 
5.0

>  <Ring_Count>  (2) 
0.8720069

>  <Ring_Count (raw)>  (2) 
3.0

>  <Aromatic_Rings>  (2) 
0.5

>  <Aromatic_Rings (raw)>  (2) 
2.0

>  <Stability_Alerts>  (2) 
1.0

>  <Stability_Alerts (raw)>  (2) 
1.0

>  <matchting_patterns (Stability_Alerts)>  (2) 
[]

>  <step>  (2) 
1.0

$$$$
run14a_mol_6
     RDKit          3D

 53 55  0  0  0  0  0  0  0  0999 V2000
    0.7920   -2.3450    2.3292 C   0  0  0  0  0  0  0  0  0  0  0  0
    1.2149   -1.8385    0.9550 C   0  0  0  0  0  0  0  0  0  0  0  0
    0.4619   -0.6565    0.5464 N   0  0  0  0  0  0  0  0  0  0  0  0
    1.0569    0.1033   -0.5539 C   0  0  0  0  0  0  0  0  0  0  0  0
    2.2796    0.9052   -0.1498 C   0  0  0  0  0  0  0  0  0  0  0  0
    2.2808    1.7031    1.0048 C   0  0  0  0  0  0  0  0  0  0  0  0
    3.4053    2.4512    1.3514 C   0  0  0  0  0  0  0  0  0  0  0  0
    4.5457    2.4111    0.5509 C   0  0  0  0  0  0  0  0  0  0  0  0
    4.5752    1.6141   -0.5984 C   0  0  0  0  0  0  0  0  0  0  0  0
    5.7906    1.5956   -1.4775 C   0  0  0  0  0  0  0  0  0  0  0  0
    3.4349    0.8767   -0.9485 C   0  0  0  0  0  0  0  0  0  0  0  0
   -0.0688    1.0200   -1.0520 C   0  0  0  0  0  0  0  0  0  0  0  0
   -1.3626    0.4739   -0.4443 C   0  0  0  0  0  0  0  0  0  0  0  0
   -2.0046    1.4326    0.5415 C   0  0  0  0  0  0  0  0  0  0  0  0
   -1.3879    2.2576    1.1978 O   0  0  0  0  0  0  0  0  0  0  0  0
   -3.4028    1.3192    0.6180 N   0  0  0  0  0  0  0  0  0  0  0  0
   -4.3379    1.9781    1.8175 S   0  0  0  0  0  0  0  0  0  0  0  0
   -4.1592    3.7339    1.5686 C   0  0  0  0  0  0  0  0  0  0  0  0
   -3.7875    1.5998    3.0980 O   0  0  0  0  0  0  0  0  0  0  0  0
   -5.6951    1.6171    1.4617 O   0  0  0  0  0  0  0  0  0  0  0  0
   -0.9778   -0.8096    0.3022 C   0  0  0  0  0  0  0  0  0  0  0  0
   -1.4246   -2.0528   -0.4640 C   0  0  0  0  0  0  0  0  0  0  0  0
   -2.2456   -2.9921    0.1856 C   0  0  0  0  0  0  0  0  0  0  0  0
   -2.6951   -4.1366   -0.4761 C   0  0  0  0  0  0  0  0  0  0  0  0
   -2.3346   -4.3623   -1.8008 C   0  0  0  0  0  0  0  0  0  0  0  0
   -1.5253   -3.4439   -2.4633 C   0  0  0  0  0  0  0  0  0  0  0  0
   -1.0751   -2.2981   -1.8019 C   0  0  0  0  0  0  0  0  0  0  0  0
   -0.2386   -2.7084    2.3381 H   0  0  0  0  0  0  0  0  0  0  0  0
    1.4373   -3.1752    2.6349 H   0  0  0  0  0  0  0  0  0  0  0  0
    0.8841   -1.5558    3.0832 H   0  0  0  0  0  0  0  0  0  0  0  0
    2.2805   -1.5899    1.0311 H   0  0  0  0  0  0  0  0  0  0  0  0
    1.1456   -2.6451    0.2166 H   0  0  0  0  0  0  0  0  0  0  0  0
    1.3324   -0.5841   -1.3641 H   0  0  0  0  0  0  0  0  0  0  0  0
    1.3975    1.7450    1.6407 H   0  0  0  0  0  0  0  0  0  0  0  0
    3.3885    3.0669    2.2468 H   0  0  0  0  0  0  0  0  0  0  0  0
    5.4123    3.0049    0.8316 H   0  0  0  0  0  0  0  0  0  0  0  0
    5.7116    2.3752   -2.2414 H   0  0  0  0  0  0  0  0  0  0  0  0
    5.9000    0.6246   -1.9717 H   0  0  0  0  0  0  0  0  0  0  0  0
    6.7000    1.7652   -0.8914 H   0  0  0  0  0  0  0  0  0  0  0  0
    3.4510    0.2709   -1.8522 H   0  0  0  0  0  0  0  0  0  0  0  0
   -0.1220    0.9605   -2.1468 H   0  0  0  0  0  0  0  0  0  0  0  0
    0.0875    2.0772   -0.8099 H   0  0  0  0  0  0  0  0  0  0  0  0
   -2.0865    0.3028   -1.2518 H   0  0  0  0  0  0  0  0  0  0  0  0
   -3.9187    0.6697    0.0302 H   0  0  0  0  0  0  0  0  0  0  0  0
   -4.4167    3.9724    0.5351 H   0  0  0  0  0  0  0  0  0  0  0  0
   -4.8528    4.2372    2.2462 H   0  0  0  0  0  0  0  0  0  0  0  0
   -3.1382    4.0360    1.8023 H   0  0  0  0  0  0  0  0  0  0  0  0
   -1.4725   -0.8301    1.2823 H   0  0  0  0  0  0  0  0  0  0  0  0
   -2.5407   -2.8433    1.2233 H   0  0  0  0  0  0  0  0  0  0  0  0
   -3.3249   -4.8530    0.0459 H   0  0  0  0  0  0  0  0  0  0  0  0
   -2.6819   -5.2544   -2.3153 H   0  0  0  0  0  0  0  0  0  0  0  0
   -1.2412   -3.6206   -3.4978 H   0  0  0  0  0  0  0  0  0  0  0  0
   -0.4469   -1.6058   -2.3537 H   0  0  0  0  0  0  0  0  0  0  0  0
  1  2  1  0
  2  3  1  0
  3  4  1  0
  4  5  1  0
  5  6  2  0
  6  7  1  0
  7  8  2  0
  8  9  1  0
  9 10  1  0
  9 11  2  0
  4 12  1  0
 12 13  1  0
 13 14  1  0
 14 15  2  0
 14 16  1  0
 16 17  1  0
 17 18  1  0
 17 19  2  0
 17 20  2  0
 13 21  1  0
 21 22  1  0
 22 23  2  0
 23 24  1  0
 24 25  2  0
 25 26  1  0
 26 27  2  0
 21  3  1  0
 27 22  1  0
 11  5  1  0
  1 28  1  0
  1 29  1  0
  1 30  1  0
  2 31  1  0
  2 32  1  0
  4 33  1  0
  6 34  1  0
  7 35  1  0
  8 36  1  0
 10 37  1  0
 10 38  1  0
 10 39  1  0
 11 40  1  0
 12 41  1  0
 12 42  1  0
 13 43  1  0
 16 44  1  0
 18 45  1  0
 18 46  1  0
 18 47  1  0
 21 48  1  0
 23 49  1  0
 24 50  1  0
 25 51  1  0
 26 52  1  0
 27 53  1  0
M  END
>  <smiles>  (3) 
CCN1C(c2cccc(C)c2)CC(C(=O)NS(C)(=O)=O)C1c1ccccc1

>  <mol_id>  (3) 
run14a_mol_6

>  <run_id>  (3) 
run14a

>  <original_index>  (3) 
6

>  <Agent>  (3) 
12.3087

>  <Prior>  (3) 
8.1761

>  <Target>  (3) 
109.601

>  <Score>  (3) 
0.7851807

>  <SMILES>  (3) 
CCN1C(c2cccc(C)c2)CC(C(=O)NS(C)(=O)=O)C1c1ccccc1

>  <SMILES_state>  (3) 
1.0

>  <Input_Scaffold>  (3) 
c1ccc([*])cc1C1N([*])C(c2ccccc2)C(C(=O)N[*])C1

>  <R-groups>  (3) 
C*|CC*|S(*)(C)(=O)=O

>  <Scaffold>  (3) 
c1ccc(C2CCC(c3ccccc3)N2)cc1

>  <DENV_Activity>  (3) 
0.9466996

>  <DENV_Activity (raw)>  (3) 
7.5943

>  <Stereo_Centers>  (3) 
1e-05

>  <Stereo_Centers (raw)>  (3) 
3.0

>  <QED>  (3) 
0.8569778

>  <QED (raw)>  (3) 
0.857

>  <SA>  (3) 
0.296995

>  <SA (raw)>  (3) 
3.4605

>  <MW>  (3) 
0.9996137

>  <MW (raw)>  (3) 
386.517

>  <Heavy_Atoms>  (3) 
0.9090909

>  <Heavy_Atoms (raw)>  (3) 
27.0

>  <LogP>  (3) 
0.9997545

>  <LogP (raw)>  (3) 
3.195

>  <TPSA>  (3) 
0.9999992

>  <TPSA (raw)>  (3) 
66.48

>  <HBA>  (3) 
0.8720069

>  <HBA (raw)>  (3) 
4.0

>  <HBD>  (3) 
0.9467598

>  <HBD (raw)>  (3) 
1.0

>  <Rotatable_Bonds>  (3) 
0.3453354

>  <Rotatable_Bonds (raw)>  (3) 
5.0

>  <Ring_Count>  (3) 
0.8720069

>  <Ring_Count (raw)>  (3) 
3.0

>  <Aromatic_Rings>  (3) 
0.5

>  <Aromatic_Rings (raw)>  (3) 
2.0

>  <Stability_Alerts>  (3) 
1.0

>  <Stability_Alerts (raw)>  (3) 
1.0

>  <matchting_patterns (Stability_Alerts)>  (3) 
[]

>  <step>  (3) 
1.0

$$$$
run14a_mol_6
     RDKit          3D

 53 55  0  0  0  0  0  0  0  0999 V2000
   -1.8414    2.5570    2.1291 C   0  0  0  0  0  0  0  0  0  0  0  0
   -1.6755    2.1258    0.6746 C   0  0  0  0  0  0  0  0  0  0  0  0
   -0.7561    1.0157    0.4173 N   0  0  0  0  0  0  0  0  0  0  0  0
   -1.0363   -0.2370    1.1302 C   0  0  0  0  0  0  0  0  0  0  0  0
   -2.2587   -0.9859    0.6473 C   0  0  0  0  0  0  0  0  0  0  0  0
   -2.5514   -1.1257   -0.7175 C   0  0  0  0  0  0  0  0  0  0  0  0
   -3.6710   -1.8442   -1.1368 C   0  0  0  0  0  0  0  0  0  0  0  0
   -4.5156   -2.4336   -0.1979 C   0  0  0  0  0  0  0  0  0  0  0  0
   -4.2539   -2.3004    1.1693 C   0  0  0  0  0  0  0  0  0  0  0  0
   -5.1435   -2.9618    2.1802 C   0  0  0  0  0  0  0  0  0  0  0  0
   -3.1181   -1.5887    1.5813 C   0  0  0  0  0  0  0  0  0  0  0  0
    0.2463   -1.0286    0.8866 C   0  0  0  0  0  0  0  0  0  0  0  0
    1.3115    0.0386    1.0947 C   0  0  0  0  0  0  0  0  0  0  0  0
    2.6909   -0.3474    0.6036 C   0  0  0  0  0  0  0  0  0  0  0  0
    3.6512   -0.3328    1.3649 O   0  0  0  0  0  0  0  0  0  0  0  0
    2.8074   -0.7753   -0.7265 N   0  0  0  0  0  0  0  0  0  0  0  0
    4.2471   -0.9679   -1.5302 S   0  0  0  0  0  0  0  0  0  0  0  0
    4.9307   -2.4194   -0.7577 C   0  0  0  0  0  0  0  0  0  0  0  0
    3.8798   -1.3283   -2.8845 O   0  0  0  0  0  0  0  0  0  0  0  0
    5.1069    0.1633   -1.2697 O   0  0  0  0  0  0  0  0  0  0  0  0
    0.6817    1.3427    0.5685 C   0  0  0  0  0  0  0  0  0  0  0  0
    1.2861    1.8936   -0.7120 C   0  0  0  0  0  0  0  0  0  0  0  0
    2.4655    2.6541   -0.6392 C   0  0  0  0  0  0  0  0  0  0  0  0
    3.0863    3.1229   -1.7981 C   0  0  0  0  0  0  0  0  0  0  0  0
    2.5352    2.8478   -3.0463 C   0  0  0  0  0  0  0  0  0  0  0  0
    1.3599    2.1079   -3.1379 C   0  0  0  0  0  0  0  0  0  0  0  0
    0.7397    1.6345   -1.9804 C   0  0  0  0  0  0  0  0  0  0  0  0
   -0.8877    2.8282    2.5900 H   0  0  0  0  0  0  0  0  0  0  0  0
   -2.3090    1.7735    2.7328 H   0  0  0  0  0  0  0  0  0  0  0  0
   -2.4928    3.4361    2.1795 H   0  0  0  0  0  0  0  0  0  0  0  0
   -2.6651    1.8637    0.2809 H   0  0  0  0  0  0  0  0  0  0  0  0
   -1.3597    2.9963    0.0862 H   0  0  0  0  0  0  0  0  0  0  0  0
   -1.1182   -0.0481    2.2087 H   0  0  0  0  0  0  0  0  0  0  0  0
   -1.9071   -0.6691   -1.4646 H   0  0  0  0  0  0  0  0  0  0  0  0
   -3.8846   -1.9445   -2.1978 H   0  0  0  0  0  0  0  0  0  0  0  0
   -5.3814   -2.9958   -0.5403 H   0  0  0  0  0  0  0  0  0  0  0  0
   -4.7786   -3.9705    2.3964 H   0  0  0  0  0  0  0  0  0  0  0  0
   -6.1724   -3.0290    1.8115 H   0  0  0  0  0  0  0  0  0  0  0  0
   -5.1700   -2.3869    3.1119 H   0  0  0  0  0  0  0  0  0  0  0  0
   -2.9042   -1.5026    2.6453 H   0  0  0  0  0  0  0  0  0  0  0  0
    0.3591   -1.8587    1.5933 H   0  0  0  0  0  0  0  0  0  0  0  0
    0.2852   -1.4537   -0.1237 H   0  0  0  0  0  0  0  0  0  0  0  0
    1.4124    0.1568    2.1860 H   0  0  0  0  0  0  0  0  0  0  0  0
    2.0167   -0.7260   -1.3640 H   0  0  0  0  0  0  0  0  0  0  0  0
    5.8441   -2.6842   -1.2952 H   0  0  0  0  0  0  0  0  0  0  0  0
    5.1692   -2.2004    0.2835 H   0  0  0  0  0  0  0  0  0  0  0  0
    4.2087   -3.2345   -0.8342 H   0  0  0  0  0  0  0  0  0  0  0  0
    0.8106    2.1057    1.3472 H   0  0  0  0  0  0  0  0  0  0  0  0
    2.9297    2.8693    0.3218 H   0  0  0  0  0  0  0  0  0  0  0  0
    4.0126    3.6879   -1.7264 H   0  0  0  0  0  0  0  0  0  0  0  0
    3.0267    3.2049   -3.9475 H   0  0  0  0  0  0  0  0  0  0  0  0
    0.9288    1.8949   -4.1127 H   0  0  0  0  0  0  0  0  0  0  0  0
   -0.1779    1.0598   -2.0816 H   0  0  0  0  0  0  0  0  0  0  0  0
  1  2  1  0
  2  3  1  0
  3  4  1  0
  4  5  1  0
  5  6  2  0
  6  7  1  0
  7  8  2  0
  8  9  1  0
  9 10  1  0
  9 11  2  0
  4 12  1  0
 12 13  1  0
 13 14  1  0
 14 15  2  0
 14 16  1  0
 16 17  1  0
 17 18  1  0
 17 19  2  0
 17 20  2  0
 13 21  1  0
 21 22  1  0
 22 23  2  0
 23 24  1  0
 24 25  2  0
 25 26  1  0
 26 27  2  0
 21  3  1  0
 27 22  1  0
 11  5  1  0
  1 28  1  0
  1 29  1  0
  1 30  1  0
  2 31  1  0
  2 32  1  0
  4 33  1  0
  6 34  1  0
  7 35  1  0
  8 36  1  0
 10 37  1  0
 10 38  1  0
 10 39  1  0
 11 40  1  0
 12 41  1  0
 12 42  1  0
 13 43  1  0
 16 44  1  0
 18 45  1  0
 18 46  1  0
 18 47  1  0
 21 48  1  0
 23 49  1  0
 24 50  1  0
 25 51  1  0
 26 52  1  0
 27 53  1  0
M  END
>  <smiles>  (4) 
CCN1C(c2cccc(C)c2)CC(C(=O)NS(C)(=O)=O)C1c1ccccc1

>  <mol_id>  (4) 
run14a_mol_6

>  <run_id>  (4) 
run14a

>  <original_index>  (4) 
6

>  <Agent>  (4) 
12.3087

>  <Prior>  (4) 
8.1761

>  <Target>  (4) 
109.601

>  <Score>  (4) 
0.7851807

>  <SMILES>  (4) 
CCN1C(c2cccc(C)c2)CC(C(=O)NS(C)(=O)=O)C1c1ccccc1

>  <SMILES_state>  (4) 
1.0

>  <Input_Scaffold>  (4) 
c1ccc([*])cc1C1N([*])C(c2ccccc2)C(C(=O)N[*])C1

>  <R-groups>  (4) 
C*|CC*|S(*)(C)(=O)=O

>  <Scaffold>  (4) 
c1ccc(C2CCC(c3ccccc3)N2)cc1

>  <DENV_Activity>  (4) 
0.9466996

>  <DENV_Activity (raw)>  (4) 
7.5943

>  <Stereo_Centers>  (4) 
1e-05

>  <Stereo_Centers (raw)>  (4) 
3.0

>  <QED>  (4) 
0.8569778

>  <QED (raw)>  (4) 
0.857

>  <SA>  (4) 
0.296995

>  <SA (raw)>  (4) 
3.4605

>  <MW>  (4) 
0.9996137

>  <MW (raw)>  (4) 
386.517

>  <Heavy_Atoms>  (4) 
0.9090909

>  <Heavy_Atoms (raw)>  (4) 
27.0

>  <LogP>  (4) 
0.9997545

>  <LogP (raw)>  (4) 
3.195

>  <TPSA>  (4) 
0.9999992

>  <TPSA (raw)>  (4) 
66.48

>  <HBA>  (4) 
0.8720069

>  <HBA (raw)>  (4) 
4.0

>  <HBD>  (4) 
0.9467598

>  <HBD (raw)>  (4) 
1.0

>  <Rotatable_Bonds>  (4) 
0.3453354

>  <Rotatable_Bonds (raw)>  (4) 
5.0

>  <Ring_Count>  (4) 
0.8720069

>  <Ring_Count (raw)>  (4) 
3.0

>  <Aromatic_Rings>  (4) 
0.5

>  <Aromatic_Rings (raw)>  (4) 
2.0

>  <Stability_Alerts>  (4) 
1.0

>  <Stability_Alerts (raw)>  (4) 
1.0

>  <matchting_patterns (Stability_Alerts)>  (4) 
[]

>  <step>  (4) 
1.0

$$$$
run14a_mol_6
     RDKit          3D

 53 55  0  0  0  0  0  0  0  0999 V2000
    1.4380   -1.4708    2.3600 C   0  0  0  0  0  0  0  0  0  0  0  0
    1.4311   -1.7502    0.8592 C   0  0  0  0  0  0  0  0  0  0  0  0
    0.7276   -0.7985   -0.0115 N   0  0  0  0  0  0  0  0  0  0  0  0
    1.2044    0.5942    0.0787 C   0  0  0  0  0  0  0  0  0  0  0  0
    2.5994    0.8286   -0.4612 C   0  0  0  0  0  0  0  0  0  0  0  0
    3.0431    0.2246   -1.6476 C   0  0  0  0  0  0  0  0  0  0  0  0
    4.3292    0.4639   -2.1308 C   0  0  0  0  0  0  0  0  0  0  0  0
    5.1877    1.3180   -1.4403 C   0  0  0  0  0  0  0  0  0  0  0  0
    4.7634    1.9488   -0.2662 C   0  0  0  0  0  0  0  0  0  0  0  0
    5.6970    2.8422    0.4958 C   0  0  0  0  0  0  0  0  0  0  0  0
    3.4742    1.6905    0.2208 C   0  0  0  0  0  0  0  0  0  0  0  0
    0.1518    1.3529   -0.7360 C   0  0  0  0  0  0  0  0  0  0  0  0
   -1.1352    0.5443   -0.5620 C   0  0  0  0  0  0  0  0  0  0  0  0
   -2.1927    1.2701    0.2358 C   0  0  0  0  0  0  0  0  0  0  0  0
   -1.9309    2.0760    1.1173 O   0  0  0  0  0  0  0  0  0  0  0  0
   -3.5122    0.9381   -0.1096 N   0  0  0  0  0  0  0  0  0  0  0  0
   -4.8163    1.1682    0.8893 S   0  0  0  0  0  0  0  0  0  0  0  0
   -4.9995    2.9403    0.9235 C   0  0  0  0  0  0  0  0  0  0  0  0
   -4.4752    0.6785    2.2054 O   0  0  0  0  0  0  0  0  0  0  0  0
   -5.9437    0.6175    0.1665 O   0  0  0  0  0  0  0  0  0  0  0  0
   -0.7251   -0.7120    0.2213 C   0  0  0  0  0  0  0  0  0  0  0  0
   -1.5138   -1.9166   -0.2589 C   0  0  0  0  0  0  0  0  0  0  0  0
   -1.2166   -2.5580   -1.4719 C   0  0  0  0  0  0  0  0  0  0  0  0
   -1.9895   -3.6312   -1.9177 C   0  0  0  0  0  0  0  0  0  0  0  0
   -3.0725   -4.0727   -1.1608 C   0  0  0  0  0  0  0  0  0  0  0  0
   -3.3813   -3.4452    0.0439 C   0  0  0  0  0  0  0  0  0  0  0  0
   -2.6072   -2.3747    0.4939 C   0  0  0  0  0  0  0  0  0  0  0  0
    0.4284   -1.4512    2.7792 H   0  0  0  0  0  0  0  0  0  0  0  0
    1.9357   -0.5265    2.5978 H   0  0  0  0  0  0  0  0  0  0  0  0
    1.9880   -2.2649    2.8768 H   0  0  0  0  0  0  0  0  0  0  0  0
    1.0152   -2.7525    0.6991 H   0  0  0  0  0  0  0  0  0  0  0  0
    2.4725   -1.8291    0.5242 H   0  0  0  0  0  0  0  0  0  0  0  0
    1.1439    0.9459    1.1173 H   0  0  0  0  0  0  0  0  0  0  0  0
    2.3862   -0.4485   -2.1945 H   0  0  0  0  0  0  0  0  0  0  0  0
    4.6636   -0.0204   -3.0443 H   0  0  0  0  0  0  0  0  0  0  0  0
    6.1906    1.4884   -1.8245 H   0  0  0  0  0  0  0  0  0  0  0  0
    6.4062    3.3335   -0.1787 H   0  0  0  0  0  0  0  0  0  0  0  0
    6.2566    2.2573    1.2322 H   0  0  0  0  0  0  0  0  0  0  0  0
    5.1441    3.6316    1.0157 H   0  0  0  0  0  0  0  0  0  0  0  0
    3.1491    2.1680    1.1437 H   0  0  0  0  0  0  0  0  0  0  0  0
    0.0684    2.3959   -0.4113 H   0  0  0  0  0  0  0  0  0  0  0  0
    0.4090    1.3747   -1.8035 H   0  0  0  0  0  0  0  0  0  0  0  0
   -1.5354    0.3230   -1.5601 H   0  0  0  0  0  0  0  0  0  0  0  0
   -3.7037    0.2577   -0.8434 H   0  0  0  0  0  0  0  0  0  0  0  0
   -5.9122    3.1691    1.4786 H   0  0  0  0  0  0  0  0  0  0  0  0
   -5.0901    3.3059   -0.1009 H   0  0  0  0  0  0  0  0  0  0  0  0
   -4.1432    3.3874    1.4288 H   0  0  0  0  0  0  0  0  0  0  0  0
   -0.9207   -0.5637    1.2917 H   0  0  0  0  0  0  0  0  0  0  0  0
   -0.3722   -2.2257   -2.0732 H   0  0  0  0  0  0  0  0  0  0  0  0
   -1.7442   -4.1242   -2.8548 H   0  0  0  0  0  0  0  0  0  0  0  0
   -3.6741   -4.9089   -1.5075 H   0  0  0  0  0  0  0  0  0  0  0  0
   -4.2260   -3.7896    0.6360 H   0  0  0  0  0  0  0  0  0  0  0  0
   -2.8704   -1.9000    1.4388 H   0  0  0  0  0  0  0  0  0  0  0  0
  1  2  1  0
  2  3  1  0
  3  4  1  0
  4  5  1  0
  5  6  2  0
  6  7  1  0
  7  8  2  0
  8  9  1  0
  9 10  1  0
  9 11  2  0
  4 12  1  0
 12 13  1  0
 13 14  1  0
 14 15  2  0
 14 16  1  0
 16 17  1  0
 17 18  1  0
 17 19  2  0
 17 20  2  0
 13 21  1  0
 21 22  1  0
 22 23  2  0
 23 24  1  0
 24 25  2  0
 25 26  1  0
 26 27  2  0
 21  3  1  0
 27 22  1  0
 11  5  1  0
  1 28  1  0
  1 29  1  0
  1 30  1  0
  2 31  1  0
  2 32  1  0
  4 33  1  0
  6 34  1  0
  7 35  1  0
  8 36  1  0
 10 37  1  0
 10 38  1  0
 10 39  1  0
 11 40  1  0
 12 41  1  0
 12 42  1  0
 13 43  1  0
 16 44  1  0
 18 45  1  0
 18 46  1  0
 18 47  1  0
 21 48  1  0
 23 49  1  0
 24 50  1  0
 25 51  1  0
 26 52  1  0
 27 53  1  0
M  END
>  <smiles>  (5) 
CCN1C(c2cccc(C)c2)CC(C(=O)NS(C)(=O)=O)C1c1ccccc1

>  <mol_id>  (5) 
run14a_mol_6

>  <run_id>  (5) 
run14a

>  <original_index>  (5) 
6

>  <Agent>  (5) 
12.3087

>  <Prior>  (5) 
8.1761

>  <Target>  (5) 
109.601

>  <Score>  (5) 
0.7851807

>  <SMILES>  (5) 
CCN1C(c2cccc(C)c2)CC(C(=O)NS(C)(=O)=O)C1c1ccccc1

>  <SMILES_state>  (5) 
1.0

>  <Input_Scaffold>  (5) 
c1ccc([*])cc1C1N([*])C(c2ccccc2)C(C(=O)N[*])C1

>  <R-groups>  (5) 
C*|CC*|S(*)(C)(=O)=O

>  <Scaffold>  (5) 
c1ccc(C2CCC(c3ccccc3)N2)cc1

>  <DENV_Activity>  (5) 
0.9466996

>  <DENV_Activity (raw)>  (5) 
7.5943

>  <Stereo_Centers>  (5) 
1e-05

>  <Stereo_Centers (raw)>  (5) 
3.0

>  <QED>  (5) 
0.8569778

>  <QED (raw)>  (5) 
0.857

>  <SA>  (5) 
0.296995

>  <SA (raw)>  (5) 
3.4605

>  <MW>  (5) 
0.9996137

>  <MW (raw)>  (5) 
386.517

>  <Heavy_Atoms>  (5) 
0.9090909

>  <Heavy_Atoms (raw)>  (5) 
27.0

>  <LogP>  (5) 
0.9997545

>  <LogP (raw)>  (5) 
3.195

>  <TPSA>  (5) 
0.9999992

>  <TPSA (raw)>  (5) 
66.48

>  <HBA>  (5) 
0.8720069

>  <HBA (raw)>  (5) 
4.0

>  <HBD>  (5) 
0.9467598

>  <HBD (raw)>  (5) 
1.0

>  <Rotatable_Bonds>  (5) 
0.3453354

>  <Rotatable_Bonds (raw)>  (5) 
5.0

>  <Ring_Count>  (5) 
0.8720069

>  <Ring_Count (raw)>  (5) 
3.0

>  <Aromatic_Rings>  (5) 
0.5

>  <Aromatic_Rings (raw)>  (5) 
2.0

>  <Stability_Alerts>  (5) 
1.0

>  <Stability_Alerts (raw)>  (5) 
1.0

>  <matchting_patterns (Stability_Alerts)>  (5) 
[]

>  <step>  (5) 
1.0

$$$$
run14a_mol_6
     RDKit          3D

 53 55  0  0  0  0  0  0  0  0999 V2000
   -1.2011   -0.9112    2.8024 C   0  0  0  0  0  0  0  0  0  0  0  0
   -1.6189   -0.1936    1.5208 C   0  0  0  0  0  0  0  0  0  0  0  0
   -0.9106   -0.6677    0.3220 N   0  0  0  0  0  0  0  0  0  0  0  0
   -1.3734   -0.0718   -0.9626 C   0  0  0  0  0  0  0  0  0  0  0  0
   -2.7747    0.5042   -1.0202 C   0  0  0  0  0  0  0  0  0  0  0  0
   -3.8552   -0.3639   -1.2560 C   0  0  0  0  0  0  0  0  0  0  0  0
   -5.1631    0.1168   -1.3186 C   0  0  0  0  0  0  0  0  0  0  0  0
   -5.4165    1.4740   -1.1362 C   0  0  0  0  0  0  0  0  0  0  0  0
   -4.3656    2.3577   -0.8734 C   0  0  0  0  0  0  0  0  0  0  0  0
   -4.6329    3.8241   -0.6994 C   0  0  0  0  0  0  0  0  0  0  0  0
   -3.0511    1.8676   -0.8270 C   0  0  0  0  0  0  0  0  0  0  0  0
   -0.2360    0.8351   -1.4320 C   0  0  0  0  0  0  0  0  0  0  0  0
    0.9806    0.0430   -0.9899 C   0  0  0  0  0  0  0  0  0  0  0  0
    2.2409    0.8704   -0.9030 C   0  0  0  0  0  0  0  0  0  0  0  0
    2.2509    2.0372   -0.5386 O   0  0  0  0  0  0  0  0  0  0  0  0
    3.4154    0.1706   -1.2130 N   0  0  0  0  0  0  0  0  0  0  0  0
    4.9111    0.8539   -1.4073 S   0  0  0  0  0  0  0  0  0  0  0  0
    5.3065    1.4330    0.2305 C   0  0  0  0  0  0  0  0  0  0  0  0
    5.7932   -0.2553   -1.7056 O   0  0  0  0  0  0  0  0  0  0  0  0
    4.8023    1.9762   -2.3098 O   0  0  0  0  0  0  0  0  0  0  0  0
    0.5590   -0.4384    0.4004 C   0  0  0  0  0  0  0  0  0  0  0  0
    1.3422   -1.6813    0.7896 C   0  0  0  0  0  0  0  0  0  0  0  0
    1.0358   -2.9422    0.2542 C   0  0  0  0  0  0  0  0  0  0  0  0
    1.8041   -4.0603    0.5811 C   0  0  0  0  0  0  0  0  0  0  0  0
    2.8893   -3.9333    1.4451 C   0  0  0  0  0  0  0  0  0  0  0  0
    3.2043   -2.6899    1.9881 C   0  0  0  0  0  0  0  0  0  0  0  0
    2.4363   -1.5707    1.6636 C   0  0  0  0  0  0  0  0  0  0  0  0
   -1.2733   -1.9979    2.6893 H   0  0  0  0  0  0  0  0  0  0  0  0
   -0.1809   -0.6558    3.1022 H   0  0  0  0  0  0  0  0  0  0  0  0
   -1.8634   -0.6175    3.6239 H   0  0  0  0  0  0  0  0  0  0  0  0
   -2.6918   -0.3874    1.4137 H   0  0  0  0  0  0  0  0  0  0  0  0
   -1.4904    0.8877    1.6543 H   0  0  0  0  0  0  0  0  0  0  0  0
   -1.3770   -0.9125   -1.6743 H   0  0  0  0  0  0  0  0  0  0  0  0
   -3.6788   -1.4298   -1.3883 H   0  0  0  0  0  0  0  0  0  0  0  0
   -5.9847   -0.5687   -1.5087 H   0  0  0  0  0  0  0  0  0  0  0  0
   -6.4400    1.8372   -1.1938 H   0  0  0  0  0  0  0  0  0  0  0  0
   -4.5518    4.3358   -1.6633 H   0  0  0  0  0  0  0  0  0  0  0  0
   -5.6351    3.9943   -0.2921 H   0  0  0  0  0  0  0  0  0  0  0  0
   -3.9187    4.2699    0.0009 H   0  0  0  0  0  0  0  0  0  0  0  0
   -2.2461    2.5695   -0.6249 H   0  0  0  0  0  0  0  0  0  0  0  0
   -0.2497    0.9935   -2.5159 H   0  0  0  0  0  0  0  0  0  0  0  0
   -0.2551    1.8186   -0.9504 H   0  0  0  0  0  0  0  0  0  0  0  0
    1.1362   -0.7879   -1.6919 H   0  0  0  0  0  0  0  0  0  0  0  0
    3.4046   -0.8324   -1.3880 H   0  0  0  0  0  0  0  0  0  0  0  0
    6.3337    1.8043    0.2130 H   0  0  0  0  0  0  0  0  0  0  0  0
    5.2287    0.5978    0.9291 H   0  0  0  0  0  0  0  0  0  0  0  0
    4.6300    2.2424    0.5057 H   0  0  0  0  0  0  0  0  0  0  0  0
    0.7666    0.3595    1.1286 H   0  0  0  0  0  0  0  0  0  0  0  0
    0.1863   -3.0614   -0.4158 H   0  0  0  0  0  0  0  0  0  0  0  0
    1.5512   -5.0325    0.1653 H   0  0  0  0  0  0  0  0  0  0  0  0
    3.4845   -4.8061    1.7017 H   0  0  0  0  0  0  0  0  0  0  0  0
    4.0459   -2.5946    2.6698 H   0  0  0  0  0  0  0  0  0  0  0  0
    2.6963   -0.6105    2.1047 H   0  0  0  0  0  0  0  0  0  0  0  0
  1  2  1  0
  2  3  1  0
  3  4  1  0
  4  5  1  0
  5  6  2  0
  6  7  1  0
  7  8  2  0
  8  9  1  0
  9 10  1  0
  9 11  2  0
  4 12  1  0
 12 13  1  0
 13 14  1  0
 14 15  2  0
 14 16  1  0
 16 17  1  0
 17 18  1  0
 17 19  2  0
 17 20  2  0
 13 21  1  0
 21 22  1  0
 22 23  2  0
 23 24  1  0
 24 25  2  0
 25 26  1  0
 26 27  2  0
 21  3  1  0
 27 22  1  0
 11  5  1  0
  1 28  1  0
  1 29  1  0
  1 30  1  0
  2 31  1  0
  2 32  1  0
  4 33  1  0
  6 34  1  0
  7 35  1  0
  8 36  1  0
 10 37  1  0
 10 38  1  0
 10 39  1  0
 11 40  1  0
 12 41  1  0
 12 42  1  0
 13 43  1  0
 16 44  1  0
 18 45  1  0
 18 46  1  0
 18 47  1  0
 21 48  1  0
 23 49  1  0
 24 50  1  0
 25 51  1  0
 26 52  1  0
 27 53  1  0
M  END
>  <smiles>  (6) 
CCN1C(c2cccc(C)c2)CC(C(=O)NS(C)(=O)=O)C1c1ccccc1

>  <mol_id>  (6) 
run14a_mol_6

>  <run_id>  (6) 
run14a

>  <original_index>  (6) 
6

>  <Agent>  (6) 
12.3087

>  <Prior>  (6) 
8.1761

>  <Target>  (6) 
109.601

>  <Score>  (6) 
0.7851807

>  <SMILES>  (6) 
CCN1C(c2cccc(C)c2)CC(C(=O)NS(C)(=O)=O)C1c1ccccc1

>  <SMILES_state>  (6) 
1.0

>  <Input_Scaffold>  (6) 
c1ccc([*])cc1C1N([*])C(c2ccccc2)C(C(=O)N[*])C1

>  <R-groups>  (6) 
C*|CC*|S(*)(C)(=O)=O

>  <Scaffold>  (6) 
c1ccc(C2CCC(c3ccccc3)N2)cc1

>  <DENV_Activity>  (6) 
0.9466996

>  <DENV_Activity (raw)>  (6) 
7.5943

>  <Stereo_Centers>  (6) 
1e-05

>  <Stereo_Centers (raw)>  (6) 
3.0

>  <QED>  (6) 
0.8569778

>  <QED (raw)>  (6) 
0.857

>  <SA>  (6) 
0.296995

>  <SA (raw)>  (6) 
3.4605

>  <MW>  (6) 
0.9996137

>  <MW (raw)>  (6) 
386.517

>  <Heavy_Atoms>  (6) 
0.9090909

>  <Heavy_Atoms (raw)>  (6) 
27.0

>  <LogP>  (6) 
0.9997545

>  <LogP (raw)>  (6) 
3.195

>  <TPSA>  (6) 
0.9999992

>  <TPSA (raw)>  (6) 
66.48

>  <HBA>  (6) 
0.8720069

>  <HBA (raw)>  (6) 
4.0

>  <HBD>  (6) 
0.9467598

>  <HBD (raw)>  (6) 
1.0

>  <Rotatable_Bonds>  (6) 
0.3453354

>  <Rotatable_Bonds (raw)>  (6) 
5.0

>  <Ring_Count>  (6) 
0.8720069

>  <Ring_Count (raw)>  (6) 
3.0

>  <Aromatic_Rings>  (6) 
0.5

>  <Aromatic_Rings (raw)>  (6) 
2.0

>  <Stability_Alerts>  (6) 
1.0

>  <Stability_Alerts (raw)>  (6) 
1.0

>  <matchting_patterns (Stability_Alerts)>  (6) 
[]

>  <step>  (6) 
1.0

$$$$
run14a_mol_6
     RDKit          3D

 53 55  0  0  0  0  0  0  0  0999 V2000
    2.3673    2.3646   -1.1602 C   0  0  0  0  0  0  0  0  0  0  0  0
    1.2529    2.4437   -0.1237 C   0  0  0  0  0  0  0  0  0  0  0  0
    0.6284    1.1442    0.1811 N   0  0  0  0  0  0  0  0  0  0  0  0
    1.5321    0.2157    0.9025 C   0  0  0  0  0  0  0  0  0  0  0  0
    2.3517   -0.6916    0.0048 C   0  0  0  0  0  0  0  0  0  0  0  0
    1.8447   -1.2066   -1.1960 C   0  0  0  0  0  0  0  0  0  0  0  0
    2.6184   -2.0497   -1.9937 C   0  0  0  0  0  0  0  0  0  0  0  0
    3.9086   -2.3985   -1.5989 C   0  0  0  0  0  0  0  0  0  0  0  0
    4.4320   -1.9181   -0.3947 C   0  0  0  0  0  0  0  0  0  0  0  0
    5.8309   -2.2676    0.0179 C   0  0  0  0  0  0  0  0  0  0  0  0
    3.6519   -1.0605    0.3944 C   0  0  0  0  0  0  0  0  0  0  0  0
    0.6347   -0.6049    1.8506 C   0  0  0  0  0  0  0  0  0  0  0  0
   -0.7912   -0.1070    1.6084 C   0  0  0  0  0  0  0  0  0  0  0  0
   -1.5753   -1.0542    0.7019 C   0  0  0  0  0  0  0  0  0  0  0  0
   -1.0630   -1.9454    0.0412 O   0  0  0  0  0  0  0  0  0  0  0  0
   -2.9734   -0.9156    0.7685 N   0  0  0  0  0  0  0  0  0  0  0  0
   -4.0360   -1.6192   -0.2957 S   0  0  0  0  0  0  0  0  0  0  0  0
   -3.9112   -3.3510    0.1023 C   0  0  0  0  0  0  0  0  0  0  0  0
   -3.5844   -1.3998   -1.6502 O   0  0  0  0  0  0  0  0  0  0  0  0
   -5.3458   -1.1691    0.1311 O   0  0  0  0  0  0  0  0  0  0  0  0
   -0.5578    1.2969    1.0464 C   0  0  0  0  0  0  0  0  0  0  0  0
   -1.7772    1.9208    0.4012 C   0  0  0  0  0  0  0  0  0  0  0  0
   -2.0869    1.7179   -0.9527 C   0  0  0  0  0  0  0  0  0  0  0  0
   -3.2562    2.2443   -1.5021 C   0  0  0  0  0  0  0  0  0  0  0  0
   -4.1278    2.9869   -0.7100 C   0  0  0  0  0  0  0  0  0  0  0  0
   -3.8306    3.2070    0.6326 C   0  0  0  0  0  0  0  0  0  0  0  0
   -2.6643    2.6765    1.1863 C   0  0  0  0  0  0  0  0  0  0  0  0
    2.0293    1.8554   -2.0686 H   0  0  0  0  0  0  0  0  0  0  0  0
    2.6815    3.3748   -1.4439 H   0  0  0  0  0  0  0  0  0  0  0  0
    3.2499    1.8492   -0.7721 H   0  0  0  0  0  0  0  0  0  0  0  0
    0.4975    3.1240   -0.5346 H   0  0  0  0  0  0  0  0  0  0  0  0
    1.6365    2.9207    0.7873 H   0  0  0  0  0  0  0  0  0  0  0  0
    2.2208    0.7979    1.5317 H   0  0  0  0  0  0  0  0  0  0  0  0
    0.8385   -0.9505   -1.5224 H   0  0  0  0  0  0  0  0  0  0  0  0
    2.2095   -2.4338   -2.9245 H   0  0  0  0  0  0  0  0  0  0  0  0
    4.5004   -3.0511   -2.2362 H   0  0  0  0  0  0  0  0  0  0  0  0
    6.1160   -3.2544   -0.3619 H   0  0  0  0  0  0  0  0  0  0  0  0
    6.5324   -1.5230   -0.3705 H   0  0  0  0  0  0  0  0  0  0  0  0
    5.9187   -2.3025    1.1089 H   0  0  0  0  0  0  0  0  0  0  0  0
    4.0649   -0.6738    1.3240 H   0  0  0  0  0  0  0  0  0  0  0  0
    0.9150   -0.3701    2.8863 H   0  0  0  0  0  0  0  0  0  0  0  0
    0.7379   -1.6891    1.7328 H   0  0  0  0  0  0  0  0  0  0  0  0
   -1.3287   -0.0634    2.5649 H   0  0  0  0  0  0  0  0  0  0  0  0
   -3.4005   -0.1508    1.2841 H   0  0  0  0  0  0  0  0  0  0  0  0
   -2.9234   -3.7208   -0.1733 H   0  0  0  0  0  0  0  0  0  0  0  0
   -4.0998   -3.4836    1.1692 H   0  0  0  0  0  0  0  0  0  0  0  0
   -4.6732   -3.8803   -0.4746 H   0  0  0  0  0  0  0  0  0  0  0  0
   -0.2685    1.9418    1.8917 H   0  0  0  0  0  0  0  0  0  0  0  0
   -1.4291    1.1252   -1.5880 H   0  0  0  0  0  0  0  0  0  0  0  0
   -3.4911    2.0587   -2.5477 H   0  0  0  0  0  0  0  0  0  0  0  0
   -5.0406    3.3899   -1.1413 H   0  0  0  0  0  0  0  0  0  0  0  0
   -4.5114    3.7904    1.2475 H   0  0  0  0  0  0  0  0  0  0  0  0
   -2.4548    2.8593    2.2382 H   0  0  0  0  0  0  0  0  0  0  0  0
  1  2  1  0
  2  3  1  0
  3  4  1  0
  4  5  1  0
  5  6  2  0
  6  7  1  0
  7  8  2  0
  8  9  1  0
  9 10  1  0
  9 11  2  0
  4 12  1  0
 12 13  1  0
 13 14  1  0
 14 15  2  0
 14 16  1  0
 16 17  1  0
 17 18  1  0
 17 19  2  0
 17 20  2  0
 13 21  1  0
 21 22  1  0
 22 23  2  0
 23 24  1  0
 24 25  2  0
 25 26  1  0
 26 27  2  0
 21  3  1  0
 27 22  1  0
 11  5  1  0
  1 28  1  0
  1 29  1  0
  1 30  1  0
  2 31  1  0
  2 32  1  0
  4 33  1  0
  6 34  1  0
  7 35  1  0
  8 36  1  0
 10 37  1  0
 10 38  1  0
 10 39  1  0
 11 40  1  0
 12 41  1  0
 12 42  1  0
 13 43  1  0
 16 44  1  0
 18 45  1  0
 18 46  1  0
 18 47  1  0
 21 48  1  0
 23 49  1  0
 24 50  1  0
 25 51  1  0
 26 52  1  0
 27 53  1  0
M  END
>  <smiles>  (7) 
CCN1C(c2cccc(C)c2)CC(C(=O)NS(C)(=O)=O)C1c1ccccc1

>  <mol_id>  (7) 
run14a_mol_6

>  <run_id>  (7) 
run14a

>  <original_index>  (7) 
6

>  <Agent>  (7) 
12.3087

>  <Prior>  (7) 
8.1761

>  <Target>  (7) 
109.601

>  <Score>  (7) 
0.7851807

>  <SMILES>  (7) 
CCN1C(c2cccc(C)c2)CC(C(=O)NS(C)(=O)=O)C1c1ccccc1

>  <SMILES_state>  (7) 
1.0

>  <Input_Scaffold>  (7) 
c1ccc([*])cc1C1N([*])C(c2ccccc2)C(C(=O)N[*])C1

>  <R-groups>  (7) 
C*|CC*|S(*)(C)(=O)=O

>  <Scaffold>  (7) 
c1ccc(C2CCC(c3ccccc3)N2)cc1

>  <DENV_Activity>  (7) 
0.9466996

>  <DENV_Activity (raw)>  (7) 
7.5943

>  <Stereo_Centers>  (7) 
1e-05

>  <Stereo_Centers (raw)>  (7) 
3.0

>  <QED>  (7) 
0.8569778

>  <QED (raw)>  (7) 
0.857

>  <SA>  (7) 
0.296995

>  <SA (raw)>  (7) 
3.4605

>  <MW>  (7) 
0.9996137

>  <MW (raw)>  (7) 
386.517

>  <Heavy_Atoms>  (7) 
0.9090909

>  <Heavy_Atoms (raw)>  (7) 
27.0

>  <LogP>  (7) 
0.9997545

>  <LogP (raw)>  (7) 
3.195

>  <TPSA>  (7) 
0.9999992

>  <TPSA (raw)>  (7) 
66.48

>  <HBA>  (7) 
0.8720069

>  <HBA (raw)>  (7) 
4.0

>  <HBD>  (7) 
0.9467598

>  <HBD (raw)>  (7) 
1.0

>  <Rotatable_Bonds>  (7) 
0.3453354

>  <Rotatable_Bonds (raw)>  (7) 
5.0

>  <Ring_Count>  (7) 
0.8720069

>  <Ring_Count (raw)>  (7) 
3.0

>  <Aromatic_Rings>  (7) 
0.5

>  <Aromatic_Rings (raw)>  (7) 
2.0

>  <Stability_Alerts>  (7) 
1.0

>  <Stability_Alerts (raw)>  (7) 
1.0

>  <matchting_patterns (Stability_Alerts)>  (7) 
[]

>  <step>  (7) 
1.0

$$$$
