run14a_mol_8
     RDKit          3D

 57 60  0  0  0  0  0  0  0  0999 V2000
   -2.5559   -4.7295   -1.0947 C   0  0  0  0  0  0  0  0  0  0  0  0
   -2.2387   -3.3378   -1.2968 N   0  0  0  0  0  0  0  0  0  0  0  0
   -1.7661   -2.5607   -0.2562 C   0  0  0  0  0  0  0  0  0  0  0  0
   -1.6587   -2.9802    0.8896 O   0  0  0  0  0  0  0  0  0  0  0  0
   -1.3932   -1.1518   -0.6838 C   0  0  0  0  0  0  0  0  0  0  0  0
   -0.1430   -1.1592   -1.5730 C   0  0  0  0  0  0  0  0  0  0  0  0
    0.8039   -0.1098   -0.9724 C   0  0  0  0  0  0  0  0  0  0  0  0
    2.0093   -0.6458   -0.2065 C   0  0  0  0  0  0  0  0  0  0  0  0
    3.1536    0.1660   -0.1158 C   0  0  0  0  0  0  0  0  0  0  0  0
    4.2849   -0.2581    0.5817 C   0  0  0  0  0  0  0  0  0  0  0  0
    4.2921   -1.5020    1.2078 C   0  0  0  0  0  0  0  0  0  0  0  0
    3.1692   -2.3315    1.1378 C   0  0  0  0  0  0  0  0  0  0  0  0
    3.1500   -3.6477    1.8581 C   0  0  0  0  0  0  0  0  0  0  0  0
    2.0313   -1.8908    0.4437 C   0  0  0  0  0  0  0  0  0  0  0  0
   -0.0477    0.7294   -0.0960 N   0  0  0  0  0  0  0  0  0  0  0  0
   -0.6781    1.8309   -0.8510 C   0  0  0  0  0  0  0  0  0  0  0  0
    0.3165    2.8975   -1.2724 C   0  0  0  0  0  0  0  0  0  0  0  0
    0.4289    3.2827   -2.6159 C   0  0  0  0  0  0  0  0  0  0  0  0
    1.3389    4.2718   -2.9943 C   0  0  0  0  0  0  0  0  0  0  0  0
    2.1403    4.8890   -2.0352 C   0  0  0  0  0  0  0  0  0  0  0  0
    2.0319    4.5208   -0.6958 C   0  0  0  0  0  0  0  0  0  0  0  0
    1.1226    3.5333   -0.3157 C   0  0  0  0  0  0  0  0  0  0  0  0
   -1.0263   -0.2340    0.4913 C   0  0  0  0  0  0  0  0  0  0  0  0
   -2.1470    0.4132    1.2948 C   0  0  0  0  0  0  0  0  0  0  0  0
   -1.8000    1.2470    2.3759 C   0  0  0  0  0  0  0  0  0  0  0  0
   -2.7779    1.8644    3.1571 C   0  0  0  0  0  0  0  0  0  0  0  0
   -4.1240    1.6507    2.8791 C   0  0  0  0  0  0  0  0  0  0  0  0
   -4.4890    0.8167    1.8251 C   0  0  0  0  0  0  0  0  0  0  0  0
   -3.5094    0.1989    1.0410 C   0  0  0  0  0  0  0  0  0  0  0  0
   -3.0910   -4.8644   -0.1509 H   0  0  0  0  0  0  0  0  0  0  0  0
   -1.6237   -5.3001   -1.0700 H   0  0  0  0  0  0  0  0  0  0  0  0
   -3.1763   -5.0692   -1.9272 H   0  0  0  0  0  0  0  0  0  0  0  0
   -2.1380   -3.0045   -2.2466 H   0  0  0  0  0  0  0  0  0  0  0  0
   -2.2289   -0.7393   -1.2639 H   0  0  0  0  0  0  0  0  0  0  0  0
   -0.4428   -0.8417   -2.5808 H   0  0  0  0  0  0  0  0  0  0  0  0
    0.3162   -2.1469   -1.6839 H   0  0  0  0  0  0  0  0  0  0  0  0
    1.2246    0.4590   -1.8123 H   0  0  0  0  0  0  0  0  0  0  0  0
    3.1611    1.1484   -0.5851 H   0  0  0  0  0  0  0  0  0  0  0  0
    5.1559    0.3883    0.6445 H   0  0  0  0  0  0  0  0  0  0  0  0
    5.1747   -1.8157    1.7598 H   0  0  0  0  0  0  0  0  0  0  0  0
    2.7466   -3.5161    2.8668 H   0  0  0  0  0  0  0  0  0  0  0  0
    4.1584   -4.0681    1.9325 H   0  0  0  0  0  0  0  0  0  0  0  0
    2.5338   -4.3767    1.3213 H   0  0  0  0  0  0  0  0  0  0  0  0
    1.1540   -2.5331    0.4376 H   0  0  0  0  0  0  0  0  0  0  0  0
   -1.2207    1.4564   -1.7281 H   0  0  0  0  0  0  0  0  0  0  0  0
   -1.4182    2.3585   -0.2385 H   0  0  0  0  0  0  0  0  0  0  0  0
   -0.1902    2.8149   -3.3772 H   0  0  0  0  0  0  0  0  0  0  0  0
    1.4217    4.5631   -4.0381 H   0  0  0  0  0  0  0  0  0  0  0  0
    2.8479    5.6589   -2.3308 H   0  0  0  0  0  0  0  0  0  0  0  0
    2.6543    5.0008    0.0546 H   0  0  0  0  0  0  0  0  0  0  0  0
    1.0466    3.2463    0.7317 H   0  0  0  0  0  0  0  0  0  0  0  0
   -0.4792   -0.8249    1.2396 H   0  0  0  0  0  0  0  0  0  0  0  0
   -0.7492    1.4193    2.6062 H   0  0  0  0  0  0  0  0  0  0  0  0
   -2.4853    2.5069    3.9830 H   0  0  0  0  0  0  0  0  0  0  0  0
   -4.8878    2.1261    3.4882 H   0  0  0  0  0  0  0  0  0  0  0  0
   -5.5408    0.6382    1.6168 H   0  0  0  0  0  0  0  0  0  0  0  0
   -3.8423   -0.4578    0.2435 H   0  0  0  0  0  0  0  0  0  0  0  0
  1  2  1  0
  2  3  1  0
  3  4  2  0
  3  5  1  0
  5  6  1  0
  6  7  1  0
  7  8  1  0
  8  9  2  0
  9 10  1  0
 10 11  2  0
 11 12  1  0
 12 13  1  0
 12 14  2  0
  7 15  1  0
 15 16  1  0
 16 17  1  0
 17 18  2  0
 18 19  1  0
 19 20  2  0
 20 21  1  0
 21 22  2  0
 15 23  1  0
 23 24  1  0
 24 25  2  0
 25 26  1  0
 26 27  2  0
 27 28  1  0
 28 29  2  0
 23  5  1  0
 29 24  1  0
 14  8  1  0
 22 17  1  0
  1 30  1  0
  1 31  1  0
  1 32  1  0
  2 33  1  0
  5 34  1  0
  6 35  1  0
  6 36  1  0
  7 37  1  0
  9 38  1  0
 10 39  1  0
 11 40  1  0
 13 41  1  0
 13 42  1  0
 13 43  1  0
 14 44  1  0
 16 45  1  0
 16 46  1  0
 18 47  1  0
 19 48  1  0
 20 49  1  0
 21 50  1  0
 22 51  1  0
 23 52  1  0
 25 53  1  0
 26 54  1  0
 27 55  1  0
 28 56  1  0
 29 57  1  0
M  END
>  <smiles>  (1) 
CNC(=O)C1CC(c2cccc(C)c2)N(Cc2ccccc2)C1c1ccccc1

>  <mol_id>  (1) 
run14a_mol_8

>  <run_id>  (1) 
run14a

>  <original_index>  (1) 
8

>  <Agent>  (1) 
5.4671

>  <Prior>  (1) 
18.3139

>  <Target>  (1) 
92.489

>  <Score>  (1) 
0.7386862

>  <SMILES>  (1) 
CNC(=O)C1CC(c2cccc(C)c2)N(Cc2ccccc2)C1c1ccccc1

>  <SMILES_state>  (1) 
1.0

>  <Input_Scaffold>  (1) 
c1ccc([*])cc1C1N([*])C(c2ccccc2)C(C(=O)N[*])C1

>  <R-groups>  (1) 
C*|c1ccccc1C*|*C

>  <Scaffold>  (1) 
c1ccc(CN2C(c3ccccc3)CCC2c2ccccc2)cc1

>  <DENV_Activity>  (1) 
0.9493959

>  <DENV_Activity (raw)>  (1) 
7.5676

>  <Stereo_Centers>  (1) 
1e-05

>  <Stereo_Centers (raw)>  (1) 
3.0

>  <QED>  (1) 
0.6678865

>  <QED (raw)>  (1) 
0.6679

>  <SA>  (1) 
0.5485839

>  <SA (raw)>  (1) 
3.2024

>  <MW>  (1) 
0.9995667

>  <MW (raw)>  (1) 
384.523

>  <Heavy_Atoms>  (1) 
0.9434421

>  <Heavy_Atoms (raw)>  (1) 
29.0

>  <LogP>  (1) 
0.4477845

>  <LogP (raw)>  (1) 
5.0455

>  <TPSA>  (1) 
0.7105401

>  <TPSA (raw)>  (1) 
32.34

>  <HBA>  (1) 
0.9968477

>  <HBA (raw)>  (1) 
2.0

>  <HBD>  (1) 
0.9467598

>  <HBD (raw)>  (1) 
1.0

>  <Rotatable_Bonds>  (1) 
0.3453354

>  <Rotatable_Bonds (raw)>  (1) 
5.0

>  <Ring_Count>  (1) 
0.1279931

>  <Ring_Count (raw)>  (1) 
4.0

>  <Aromatic_Rings>  (1) 
0.0031523

>  <Aromatic_Rings (raw)>  (1) 
3.0

>  <Stability_Alerts>  (1) 
1.0

>  <Stability_Alerts (raw)>  (1) 
1.0

>  <matchting_patterns (Stability_Alerts)>  (1) 
[]

>  <step>  (1) 
1.0

$$$$
run14a_mol_8
     RDKit          3D

 57 60  0  0  0  0  0  0  0  0999 V2000
   -2.4046    4.7006   -1.0446 C   0  0  0  0  0  0  0  0  0  0  0  0
   -2.0175    3.3147   -0.9647 N   0  0  0  0  0  0  0  0  0  0  0  0
   -1.9010    2.5589   -2.1078 C   0  0  0  0  0  0  0  0  0  0  0  0
   -2.2180    2.9785   -3.2202 O   0  0  0  0  0  0  0  0  0  0  0  0
   -1.3346    1.1603   -1.9424 C   0  0  0  0  0  0  0  0  0  0  0  0
   -1.9269    0.3462   -0.8052 C   0  0  0  0  0  0  0  0  0  0  0  0
   -0.9184   -0.7944   -0.6737 C   0  0  0  0  0  0  0  0  0  0  0  0
   -1.1480   -1.5487    0.6188 C   0  0  0  0  0  0  0  0  0  0  0  0
   -0.7224   -1.0484    1.8574 C   0  0  0  0  0  0  0  0  0  0  0  0
   -0.9694   -1.7539    3.0349 C   0  0  0  0  0  0  0  0  0  0  0  0
   -1.6527   -2.9678    2.9930 C   0  0  0  0  0  0  0  0  0  0  0  0
   -2.0867   -3.4917    1.7715 C   0  0  0  0  0  0  0  0  0  0  0  0
   -2.8516   -4.7811    1.7271 C   0  0  0  0  0  0  0  0  0  0  0  0
   -1.8449   -2.7693    0.5944 C   0  0  0  0  0  0  0  0  0  0  0  0
    0.3790   -0.0983   -0.8006 N   0  0  0  0  0  0  0  0  0  0  0  0
    1.4863   -0.9731   -1.2190 C   0  0  0  0  0  0  0  0  0  0  0  0
    2.0635   -1.8061   -0.0982 C   0  0  0  0  0  0  0  0  0  0  0  0
    2.8284   -1.1994    0.9100 C   0  0  0  0  0  0  0  0  0  0  0  0
    3.3631   -1.9600    1.9505 C   0  0  0  0  0  0  0  0  0  0  0  0
    3.1386   -3.3344    1.9951 C   0  0  0  0  0  0  0  0  0  0  0  0
    2.3813   -3.9490    0.9994 C   0  0  0  0  0  0  0  0  0  0  0  0
    1.8483   -3.1901   -0.0441 C   0  0  0  0  0  0  0  0  0  0  0  0
    0.1882    1.0213   -1.7666 C   0  0  0  0  0  0  0  0  0  0  0  0
    0.9315    2.2758   -1.3322 C   0  0  0  0  0  0  0  0  0  0  0  0
    1.2997    3.2251   -2.3007 C   0  0  0  0  0  0  0  0  0  0  0  0
    1.9570    4.4018   -1.9364 C   0  0  0  0  0  0  0  0  0  0  0  0
    2.2584    4.6478   -0.5994 C   0  0  0  0  0  0  0  0  0  0  0  0
    1.9023    3.7184    0.3744 C   0  0  0  0  0  0  0  0  0  0  0  0
    1.2426    2.5426    0.0115 C   0  0  0  0  0  0  0  0  0  0  0  0
   -2.6503    5.0511   -0.0397 H   0  0  0  0  0  0  0  0  0  0  0  0
   -1.5667    5.2780   -1.4447 H   0  0  0  0  0  0  0  0  0  0  0  0
   -3.2711    4.8130   -1.7019 H   0  0  0  0  0  0  0  0  0  0  0  0
   -1.4451    3.0485   -0.1733 H   0  0  0  0  0  0  0  0  0  0  0  0
   -1.6061    0.6242   -2.8662 H   0  0  0  0  0  0  0  0  0  0  0  0
   -2.9318   -0.0178   -1.0485 H   0  0  0  0  0  0  0  0  0  0  0  0
   -2.0080    0.9285    0.1205 H   0  0  0  0  0  0  0  0  0  0  0  0
   -1.0501   -1.4767   -1.5263 H   0  0  0  0  0  0  0  0  0  0  0  0
   -0.1781   -0.1093    1.9079 H   0  0  0  0  0  0  0  0  0  0  0  0
   -0.6226   -1.3577    3.9851 H   0  0  0  0  0  0  0  0  0  0  0  0
   -1.8401   -3.5041    3.9199 H   0  0  0  0  0  0  0  0  0  0  0  0
   -3.9246   -4.5825    1.8081 H   0  0  0  0  0  0  0  0  0  0  0  0
   -2.5513   -5.4428    2.5464 H   0  0  0  0  0  0  0  0  0  0  0  0
   -2.6594   -5.3164    0.7913 H   0  0  0  0  0  0  0  0  0  0  0  0
   -2.2008   -3.1668   -0.3542 H   0  0  0  0  0  0  0  0  0  0  0  0
    1.1911   -1.6109   -2.0628 H   0  0  0  0  0  0  0  0  0  0  0  0
    2.3205   -0.3644   -1.5961 H   0  0  0  0  0  0  0  0  0  0  0  0
    3.0013   -0.1259    0.8868 H   0  0  0  0  0  0  0  0  0  0  0  0
    3.9495   -1.4788    2.7281 H   0  0  0  0  0  0  0  0  0  0  0  0
    3.5484   -3.9261    2.8087 H   0  0  0  0  0  0  0  0  0  0  0  0
    2.1975   -5.0190    1.0397 H   0  0  0  0  0  0  0  0  0  0  0  0
    1.2494   -3.6834   -0.8051 H   0  0  0  0  0  0  0  0  0  0  0  0
    0.5917    0.7261   -2.7470 H   0  0  0  0  0  0  0  0  0  0  0  0
    1.0629    3.0601   -3.3507 H   0  0  0  0  0  0  0  0  0  0  0  0
    2.2307    5.1272   -2.6984 H   0  0  0  0  0  0  0  0  0  0  0  0
    2.7726    5.5627   -0.3173 H   0  0  0  0  0  0  0  0  0  0  0  0
    2.1413    3.9061    1.4180 H   0  0  0  0  0  0  0  0  0  0  0  0
    0.9777    1.8303    0.7897 H   0  0  0  0  0  0  0  0  0  0  0  0
  1  2  1  0
  2  3  1  0
  3  4  2  0
  3  5  1  0
  5  6  1  0
  6  7  1  0
  7  8  1  0
  8  9  2  0
  9 10  1  0
 10 11  2  0
 11 12  1  0
 12 13  1  0
 12 14  2  0
  7 15  1  0
 15 16  1  0
 16 17  1  0
 17 18  2  0
 18 19  1  0
 19 20  2  0
 20 21  1  0
 21 22  2  0
 15 23  1  0
 23 24  1  0
 24 25  2  0
 25 26  1  0
 26 27  2  0
 27 28  1  0
 28 29  2  0
 23  5  1  0
 29 24  1  0
 14  8  1  0
 22 17  1  0
  1 30  1  0
  1 31  1  0
  1 32  1  0
  2 33  1  0
  5 34  1  0
  6 35  1  0
  6 36  1  0
  7 37  1  0
  9 38  1  0
 10 39  1  0
 11 40  1  0
 13 41  1  0
 13 42  1  0
 13 43  1  0
 14 44  1  0
 16 45  1  0
 16 46  1  0
 18 47  1  0
 19 48  1  0
 20 49  1  0
 21 50  1  0
 22 51  1  0
 23 52  1  0
 25 53  1  0
 26 54  1  0
 27 55  1  0
 28 56  1  0
 29 57  1  0
M  END
>  <smiles>  (2) 
CNC(=O)C1CC(c2cccc(C)c2)N(Cc2ccccc2)C1c1ccccc1

>  <mol_id>  (2) 
run14a_mol_8

>  <run_id>  (2) 
run14a

>  <original_index>  (2) 
8

>  <Agent>  (2) 
5.4671

>  <Prior>  (2) 
18.3139

>  <Target>  (2) 
92.489

>  <Score>  (2) 
0.7386862

>  <SMILES>  (2) 
CNC(=O)C1CC(c2cccc(C)c2)N(Cc2ccccc2)C1c1ccccc1

>  <SMILES_state>  (2) 
1.0

>  <Input_Scaffold>  (2) 
c1ccc([*])cc1C1N([*])C(c2ccccc2)C(C(=O)N[*])C1

>  <R-groups>  (2) 
C*|c1ccccc1C*|*C

>  <Scaffold>  (2) 
c1ccc(CN2C(c3ccccc3)CCC2c2ccccc2)cc1

>  <DENV_Activity>  (2) 
0.9493959

>  <DENV_Activity (raw)>  (2) 
7.5676

>  <Stereo_Centers>  (2) 
1e-05

>  <Stereo_Centers (raw)>  (2) 
3.0

>  <QED>  (2) 
0.6678865

>  <QED (raw)>  (2) 
0.6679

>  <SA>  (2) 
0.5485839

>  <SA (raw)>  (2) 
3.2024

>  <MW>  (2) 
0.9995667

>  <MW (raw)>  (2) 
384.523

>  <Heavy_Atoms>  (2) 
0.9434421

>  <Heavy_Atoms (raw)>  (2) 
29.0

>  <LogP>  (2) 
0.4477845

>  <LogP (raw)>  (2) 
5.0455

>  <TPSA>  (2) 
0.7105401

>  <TPSA (raw)>  (2) 
32.34

>  <HBA>  (2) 
0.9968477

>  <HBA (raw)>  (2) 
2.0

>  <HBD>  (2) 
0.9467598

>  <HBD (raw)>  (2) 
1.0

>  <Rotatable_Bonds>  (2) 
0.3453354

>  <Rotatable_Bonds (raw)>  (2) 
5.0

>  <Ring_Count>  (2) 
0.1279931

>  <Ring_Count (raw)>  (2) 
4.0

>  <Aromatic_Rings>  (2) 
0.0031523

>  <Aromatic_Rings (raw)>  (2) 
3.0

>  <Stability_Alerts>  (2) 
1.0

>  <Stability_Alerts (raw)>  (2) 
1.0

>  <matchting_patterns (Stability_Alerts)>  (2) 
[]

>  <step>  (2) 
1.0

$$$$
run14a_mol_8
     RDKit          3D

 57 60  0  0  0  0  0  0  0  0999 V2000
   -1.9133   -5.1620    0.2369 C   0  0  0  0  0  0  0  0  0  0  0  0
   -1.3219   -3.8468    0.2482 N   0  0  0  0  0  0  0  0  0  0  0  0
   -1.6104   -2.9498    1.2510 C   0  0  0  0  0  0  0  0  0  0  0  0
   -2.4040   -3.1991    2.1562 O   0  0  0  0  0  0  0  0  0  0  0  0
   -0.8866   -1.6151    1.1949 C   0  0  0  0  0  0  0  0  0  0  0  0
    0.6409   -1.7560    1.1964 C   0  0  0  0  0  0  0  0  0  0  0  0
    1.0780   -1.1245   -0.1290 C   0  0  0  0  0  0  0  0  0  0  0  0
    2.5263   -0.7097   -0.2991 C   0  0  0  0  0  0  0  0  0  0  0  0
    2.9276   -0.1382   -1.5190 C   0  0  0  0  0  0  0  0  0  0  0  0
    4.2525    0.2378   -1.7374 C   0  0  0  0  0  0  0  0  0  0  0  0
    5.2045    0.0427   -0.7403 C   0  0  0  0  0  0  0  0  0  0  0  0
    4.8367   -0.5243    0.4836 C   0  0  0  0  0  0  0  0  0  0  0  0
    5.8690   -0.7713    1.5445 C   0  0  0  0  0  0  0  0  0  0  0  0
    3.5031   -0.9128    0.6885 C   0  0  0  0  0  0  0  0  0  0  0  0
    0.0547   -0.0708   -0.3869 N   0  0  0  0  0  0  0  0  0  0  0  0
    0.2500    1.1206    0.4788 C   0  0  0  0  0  0  0  0  0  0  0  0
   -0.2418    2.4093   -0.1502 C   0  0  0  0  0  0  0  0  0  0  0  0
   -1.1809    3.2143    0.5111 C   0  0  0  0  0  0  0  0  0  0  0  0
   -1.6171    4.4122   -0.0586 C   0  0  0  0  0  0  0  0  0  0  0  0
   -1.1121    4.8251   -1.2898 C   0  0  0  0  0  0  0  0  0  0  0  0
   -0.1703    4.0412   -1.9526 C   0  0  0  0  0  0  0  0  0  0  0  0
    0.2643    2.8423   -1.3850 C   0  0  0  0  0  0  0  0  0  0  0  0
   -1.2156   -0.8100   -0.0788 C   0  0  0  0  0  0  0  0  0  0  0  0
   -2.5022   -0.0040   -0.1255 C   0  0  0  0  0  0  0  0  0  0  0  0
   -3.4215    0.0477    0.9330 C   0  0  0  0  0  0  0  0  0  0  0  0
   -4.6080    0.7794    0.8182 C   0  0  0  0  0  0  0  0  0  0  0  0
   -4.9012    1.4638   -0.3580 C   0  0  0  0  0  0  0  0  0  0  0  0
   -4.0119    1.4115   -1.4260 C   0  0  0  0  0  0  0  0  0  0  0  0
   -2.8296    0.6778   -1.3128 C   0  0  0  0  0  0  0  0  0  0  0  0
   -2.9705   -5.1064    0.5101 H   0  0  0  0  0  0  0  0  0  0  0  0
   -1.8094   -5.5814   -0.7664 H   0  0  0  0  0  0  0  0  0  0  0  0
   -1.3825   -5.7896    0.9576 H   0  0  0  0  0  0  0  0  0  0  0  0
   -0.5610   -3.6681   -0.3925 H   0  0  0  0  0  0  0  0  0  0  0  0
   -1.1574   -1.0639    2.1043 H   0  0  0  0  0  0  0  0  0  0  0  0
    0.9889   -2.7905    1.2890 H   0  0  0  0  0  0  0  0  0  0  0  0
    1.0390   -1.2011    2.0552 H   0  0  0  0  0  0  0  0  0  0  0  0
    0.9382   -1.8963   -0.9028 H   0  0  0  0  0  0  0  0  0  0  0  0
    2.1956    0.0181   -2.3098 H   0  0  0  0  0  0  0  0  0  0  0  0
    4.5414    0.6810   -2.6866 H   0  0  0  0  0  0  0  0  0  0  0  0
    6.2357    0.3348   -0.9243 H   0  0  0  0  0  0  0  0  0  0  0  0
    6.6790   -0.0370    1.4815 H   0  0  0  0  0  0  0  0  0  0  0  0
    6.2913   -1.7742    1.4289 H   0  0  0  0  0  0  0  0  0  0  0  0
    5.4296   -0.6840    2.5438 H   0  0  0  0  0  0  0  0  0  0  0  0
    3.2433   -1.3772    1.6365 H   0  0  0  0  0  0  0  0  0  0  0  0
    1.3133    1.3010    0.6781 H   0  0  0  0  0  0  0  0  0  0  0  0
   -0.2004    0.9870    1.4702 H   0  0  0  0  0  0  0  0  0  0  0  0
   -1.5952    2.9030    1.4669 H   0  0  0  0  0  0  0  0  0  0  0  0
   -2.3562    5.0185    0.4576 H   0  0  0  0  0  0  0  0  0  0  0  0
   -1.4536    5.7564   -1.7326 H   0  0  0  0  0  0  0  0  0  0  0  0
    0.2265    4.3613   -2.9119 H   0  0  0  0  0  0  0  0  0  0  0  0
    0.9997    2.2389   -1.9100 H   0  0  0  0  0  0  0  0  0  0  0  0
   -1.3468   -1.5241   -0.9065 H   0  0  0  0  0  0  0  0  0  0  0  0
   -3.2497   -0.4847    1.8647 H   0  0  0  0  0  0  0  0  0  0  0  0
   -5.3068    0.8079    1.6504 H   0  0  0  0  0  0  0  0  0  0  0  0
   -5.8216    2.0342   -0.4429 H   0  0  0  0  0  0  0  0  0  0  0  0
   -4.2295    1.9470   -2.3458 H   0  0  0  0  0  0  0  0  0  0  0  0
   -2.1399    0.6580   -2.1552 H   0  0  0  0  0  0  0  0  0  0  0  0
  1  2  1  0
  2  3  1  0
  3  4  2  0
  3  5  1  0
  5  6  1  0
  6  7  1  0
  7  8  1  0
  8  9  2  0
  9 10  1  0
 10 11  2  0
 11 12  1  0
 12 13  1  0
 12 14  2  0
  7 15  1  0
 15 16  1  0
 16 17  1  0
 17 18  2  0
 18 19  1  0
 19 20  2  0
 20 21  1  0
 21 22  2  0
 15 23  1  0
 23 24  1  0
 24 25  2  0
 25 26  1  0
 26 27  2  0
 27 28  1  0
 28 29  2  0
 23  5  1  0
 29 24  1  0
 14  8  1  0
 22 17  1  0
  1 30  1  0
  1 31  1  0
  1 32  1  0
  2 33  1  0
  5 34  1  0
  6 35  1  0
  6 36  1  0
  7 37  1  0
  9 38  1  0
 10 39  1  0
 11 40  1  0
 13 41  1  0
 13 42  1  0
 13 43  1  0
 14 44  1  0
 16 45  1  0
 16 46  1  0
 18 47  1  0
 19 48  1  0
 20 49  1  0
 21 50  1  0
 22 51  1  0
 23 52  1  0
 25 53  1  0
 26 54  1  0
 27 55  1  0
 28 56  1  0
 29 57  1  0
M  END
>  <smiles>  (3) 
CNC(=O)C1CC(c2cccc(C)c2)N(Cc2ccccc2)C1c1ccccc1

>  <mol_id>  (3) 
run14a_mol_8

>  <run_id>  (3) 
run14a

>  <original_index>  (3) 
8

>  <Agent>  (3) 
5.4671

>  <Prior>  (3) 
18.3139

>  <Target>  (3) 
92.489

>  <Score>  (3) 
0.7386862

>  <SMILES>  (3) 
CNC(=O)C1CC(c2cccc(C)c2)N(Cc2ccccc2)C1c1ccccc1

>  <SMILES_state>  (3) 
1.0

>  <Input_Scaffold>  (3) 
c1ccc([*])cc1C1N([*])C(c2ccccc2)C(C(=O)N[*])C1

>  <R-groups>  (3) 
C*|c1ccccc1C*|*C

>  <Scaffold>  (3) 
c1ccc(CN2C(c3ccccc3)CCC2c2ccccc2)cc1

>  <DENV_Activity>  (3) 
0.9493959

>  <DENV_Activity (raw)>  (3) 
7.5676

>  <Stereo_Centers>  (3) 
1e-05

>  <Stereo_Centers (raw)>  (3) 
3.0

>  <QED>  (3) 
0.6678865

>  <QED (raw)>  (3) 
0.6679

>  <SA>  (3) 
0.5485839

>  <SA (raw)>  (3) 
3.2024

>  <MW>  (3) 
0.9995667

>  <MW (raw)>  (3) 
384.523

>  <Heavy_Atoms>  (3) 
0.9434421

>  <Heavy_Atoms (raw)>  (3) 
29.0

>  <LogP>  (3) 
0.4477845

>  <LogP (raw)>  (3) 
5.0455

>  <TPSA>  (3) 
0.7105401

>  <TPSA (raw)>  (3) 
32.34

>  <HBA>  (3) 
0.9968477

>  <HBA (raw)>  (3) 
2.0

>  <HBD>  (3) 
0.9467598

>  <HBD (raw)>  (3) 
1.0

>  <Rotatable_Bonds>  (3) 
0.3453354

>  <Rotatable_Bonds (raw)>  (3) 
5.0

>  <Ring_Count>  (3) 
0.1279931

>  <Ring_Count (raw)>  (3) 
4.0

>  <Aromatic_Rings>  (3) 
0.0031523

>  <Aromatic_Rings (raw)>  (3) 
3.0

>  <Stability_Alerts>  (3) 
1.0

>  <Stability_Alerts (raw)>  (3) 
1.0

>  <matchting_patterns (Stability_Alerts)>  (3) 
[]

>  <step>  (3) 
1.0

$$$$
run14a_mol_8
     RDKit          3D

 57 60  0  0  0  0  0  0  0  0999 V2000
   -3.2775   -3.8149    1.6534 C   0  0  0  0  0  0  0  0  0  0  0  0
   -2.3767   -2.6903    1.6286 N   0  0  0  0  0  0  0  0  0  0  0  0
   -2.7003   -1.5263    2.2857 C   0  0  0  0  0  0  0  0  0  0  0  0
   -3.6947   -1.4191    3.0024 O   0  0  0  0  0  0  0  0  0  0  0  0
   -1.7716   -0.3448    2.0717 C   0  0  0  0  0  0  0  0  0  0  0  0
   -0.2883   -0.6491    2.1907 C   0  0  0  0  0  0  0  0  0  0  0  0
    0.3409    0.5948    1.5647 C   0  0  0  0  0  0  0  0  0  0  0  0
    1.8113    0.3555    1.2958 C   0  0  0  0  0  0  0  0  0  0  0  0
    2.7667    0.8240    2.2108 C   0  0  0  0  0  0  0  0  0  0  0  0
    4.1271    0.5958    2.0007 C   0  0  0  0  0  0  0  0  0  0  0  0
    4.5532   -0.1031    0.8726 C   0  0  0  0  0  0  0  0  0  0  0  0
    3.6228   -0.5756   -0.0575 C   0  0  0  0  0  0  0  0  0  0  0  0
    4.0718   -1.3422   -1.2653 C   0  0  0  0  0  0  0  0  0  0  0  0
    2.2571   -0.3620    0.1742 C   0  0  0  0  0  0  0  0  0  0  0  0
   -0.5125    0.8288    0.3810 N   0  0  0  0  0  0  0  0  0  0  0  0
   -0.4678    2.2106   -0.1239 C   0  0  0  0  0  0  0  0  0  0  0  0
    0.7361    2.5030   -0.9893 C   0  0  0  0  0  0  0  0  0  0  0  0
    0.8253    1.9596   -2.2804 C   0  0  0  0  0  0  0  0  0  0  0  0
    1.9359    2.2178   -3.0847 C   0  0  0  0  0  0  0  0  0  0  0  0
    2.9693    3.0212   -2.6074 C   0  0  0  0  0  0  0  0  0  0  0  0
    2.8921    3.5679   -1.3276 C   0  0  0  0  0  0  0  0  0  0  0  0
    1.7803    3.3131   -0.5227 C   0  0  0  0  0  0  0  0  0  0  0  0
   -1.9021    0.4377    0.7527 C   0  0  0  0  0  0  0  0  0  0  0  0
   -2.6104   -0.2807   -0.3862 C   0  0  0  0  0  0  0  0  0  0  0  0
   -4.0144   -0.2632   -0.4408 C   0  0  0  0  0  0  0  0  0  0  0  0
   -4.6999   -0.9354   -1.4544 C   0  0  0  0  0  0  0  0  0  0  0  0
   -3.9937   -1.6343   -2.4301 C   0  0  0  0  0  0  0  0  0  0  0  0
   -2.6021   -1.6627   -2.3928 C   0  0  0  0  0  0  0  0  0  0  0  0
   -1.9157   -0.9930   -1.3781 C   0  0  0  0  0  0  0  0  0  0  0  0
   -4.1369   -3.5921    1.0152 H   0  0  0  0  0  0  0  0  0  0  0  0
   -2.7493   -4.6914    1.2714 H   0  0  0  0  0  0  0  0  0  0  0  0
   -3.6207   -4.0010    2.6746 H   0  0  0  0  0  0  0  0  0  0  0  0
   -1.7688   -2.6135    0.8227 H   0  0  0  0  0  0  0  0  0  0  0  0
   -1.9988    0.3569    2.8905 H   0  0  0  0  0  0  0  0  0  0  0  0
    0.0145   -0.7838    3.2355 H   0  0  0  0  0  0  0  0  0  0  0  0
   -0.0090   -1.5622    1.6513 H   0  0  0  0  0  0  0  0  0  0  0  0
    0.2286    1.4349    2.2656 H   0  0  0  0  0  0  0  0  0  0  0  0
    2.4569    1.3713    3.0979 H   0  0  0  0  0  0  0  0  0  0  0  0
    4.8565    0.9639    2.7171 H   0  0  0  0  0  0  0  0  0  0  0  0
    5.6163   -0.2726    0.7206 H   0  0  0  0  0  0  0  0  0  0  0  0
    5.0797   -1.0404   -1.5689 H   0  0  0  0  0  0  0  0  0  0  0  0
    3.4076   -1.1532   -2.1153 H   0  0  0  0  0  0  0  0  0  0  0  0
    4.0747   -2.4147   -1.0482 H   0  0  0  0  0  0  0  0  0  0  0  0
    1.5299   -0.7364   -0.5427 H   0  0  0  0  0  0  0  0  0  0  0  0
   -1.3435    2.4052   -0.7594 H   0  0  0  0  0  0  0  0  0  0  0  0
   -0.5417    2.9368    0.6964 H   0  0  0  0  0  0  0  0  0  0  0  0
    0.0267    1.3246   -2.6573 H   0  0  0  0  0  0  0  0  0  0  0  0
    1.9962    1.7877   -4.0804 H   0  0  0  0  0  0  0  0  0  0  0  0
    3.8378    3.2171   -3.2299 H   0  0  0  0  0  0  0  0  0  0  0  0
    3.7027    4.1858   -0.9513 H   0  0  0  0  0  0  0  0  0  0  0  0
    1.7430    3.7355    0.4780 H   0  0  0  0  0  0  0  0  0  0  0  0
   -2.4842    1.3433    0.9809 H   0  0  0  0  0  0  0  0  0  0  0  0
   -4.5880    0.2658    0.3188 H   0  0  0  0  0  0  0  0  0  0  0  0
   -5.7865   -0.9148   -1.4790 H   0  0  0  0  0  0  0  0  0  0  0  0
   -4.5284   -2.1549   -3.2202 H   0  0  0  0  0  0  0  0  0  0  0  0
   -2.0488   -2.2036   -3.1562 H   0  0  0  0  0  0  0  0  0  0  0  0
   -0.8285   -1.0272   -1.3715 H   0  0  0  0  0  0  0  0  0  0  0  0
  1  2  1  0
  2  3  1  0
  3  4  2  0
  3  5  1  0
  5  6  1  0
  6  7  1  0
  7  8  1  0
  8  9  2  0
  9 10  1  0
 10 11  2  0
 11 12  1  0
 12 13  1  0
 12 14  2  0
  7 15  1  0
 15 16  1  0
 16 17  1  0
 17 18  2  0
 18 19  1  0
 19 20  2  0
 20 21  1  0
 21 22  2  0
 15 23  1  0
 23 24  1  0
 24 25  2  0
 25 26  1  0
 26 27  2  0
 27 28  1  0
 28 29  2  0
 23  5  1  0
 29 24  1  0
 14  8  1  0
 22 17  1  0
  1 30  1  0
  1 31  1  0
  1 32  1  0
  2 33  1  0
  5 34  1  0
  6 35  1  0
  6 36  1  0
  7 37  1  0
  9 38  1  0
 10 39  1  0
 11 40  1  0
 13 41  1  0
 13 42  1  0
 13 43  1  0
 14 44  1  0
 16 45  1  0
 16 46  1  0
 18 47  1  0
 19 48  1  0
 20 49  1  0
 21 50  1  0
 22 51  1  0
 23 52  1  0
 25 53  1  0
 26 54  1  0
 27 55  1  0
 28 56  1  0
 29 57  1  0
M  END
>  <smiles>  (4) 
CNC(=O)C1CC(c2cccc(C)c2)N(Cc2ccccc2)C1c1ccccc1

>  <mol_id>  (4) 
run14a_mol_8

>  <run_id>  (4) 
run14a

>  <original_index>  (4) 
8

>  <Agent>  (4) 
5.4671

>  <Prior>  (4) 
18.3139

>  <Target>  (4) 
92.489

>  <Score>  (4) 
0.7386862

>  <SMILES>  (4) 
CNC(=O)C1CC(c2cccc(C)c2)N(Cc2ccccc2)C1c1ccccc1

>  <SMILES_state>  (4) 
1.0

>  <Input_Scaffold>  (4) 
c1ccc([*])cc1C1N([*])C(c2ccccc2)C(C(=O)N[*])C1

>  <R-groups>  (4) 
C*|c1ccccc1C*|*C

>  <Scaffold>  (4) 
c1ccc(CN2C(c3ccccc3)CCC2c2ccccc2)cc1

>  <DENV_Activity>  (4) 
0.9493959

>  <DENV_Activity (raw)>  (4) 
7.5676

>  <Stereo_Centers>  (4) 
1e-05

>  <Stereo_Centers (raw)>  (4) 
3.0

>  <QED>  (4) 
0.6678865

>  <QED (raw)>  (4) 
0.6679

>  <SA>  (4) 
0.5485839

>  <SA (raw)>  (4) 
3.2024

>  <MW>  (4) 
0.9995667

>  <MW (raw)>  (4) 
384.523

>  <Heavy_Atoms>  (4) 
0.9434421

>  <Heavy_Atoms (raw)>  (4) 
29.0

>  <LogP>  (4) 
0.4477845

>  <LogP (raw)>  (4) 
5.0455

>  <TPSA>  (4) 
0.7105401

>  <TPSA (raw)>  (4) 
32.34

>  <HBA>  (4) 
0.9968477

>  <HBA (raw)>  (4) 
2.0

>  <HBD>  (4) 
0.9467598

>  <HBD (raw)>  (4) 
1.0

>  <Rotatable_Bonds>  (4) 
0.3453354

>  <Rotatable_Bonds (raw)>  (4) 
5.0

>  <Ring_Count>  (4) 
0.1279931

>  <Ring_Count (raw)>  (4) 
4.0

>  <Aromatic_Rings>  (4) 
0.0031523

>  <Aromatic_Rings (raw)>  (4) 
3.0

>  <Stability_Alerts>  (4) 
1.0

>  <Stability_Alerts (raw)>  (4) 
1.0

>  <matchting_patterns (Stability_Alerts)>  (4) 
[]

>  <step>  (4) 
1.0

$$$$
run14a_mol_8
     RDKit          3D

 57 60  0  0  0  0  0  0  0  0999 V2000
   -1.3664   -5.1215   -1.4445 C   0  0  0  0  0  0  0  0  0  0  0  0
   -1.0568   -3.7164   -1.5348 N   0  0  0  0  0  0  0  0  0  0  0  0
    0.0596   -3.2131   -0.8956 C   0  0  0  0  0  0  0  0  0  0  0  0
    0.9075   -3.9337   -0.3761 O   0  0  0  0  0  0  0  0  0  0  0  0
    0.1933   -1.7010   -0.9664 C   0  0  0  0  0  0  0  0  0  0  0  0
    1.4779   -1.1748   -0.3343 C   0  0  0  0  0  0  0  0  0  0  0  0
    1.1634    0.3053   -0.1343 C   0  0  0  0  0  0  0  0  0  0  0  0
    2.1495    0.9587    0.8106 C   0  0  0  0  0  0  0  0  0  0  0  0
    2.0831    0.7647    2.1985 C   0  0  0  0  0  0  0  0  0  0  0  0
    3.0072    1.3728    3.0477 C   0  0  0  0  0  0  0  0  0  0  0  0
    4.0187    2.1746    2.5212 C   0  0  0  0  0  0  0  0  0  0  0  0
    4.1232    2.3642    1.1395 C   0  0  0  0  0  0  0  0  0  0  0  0
    5.1948    3.2476    0.5730 C   0  0  0  0  0  0  0  0  0  0  0  0
    3.1809    1.7612    0.2944 C   0  0  0  0  0  0  0  0  0  0  0  0
   -0.2192    0.2619    0.3482 N   0  0  0  0  0  0  0  0  0  0  0  0
   -0.9355    1.5333    0.4399 C   0  0  0  0  0  0  0  0  0  0  0  0
   -1.1690    2.2823   -0.8560 C   0  0  0  0  0  0  0  0  0  0  0  0
   -2.3532    2.1040   -1.5866 C   0  0  0  0  0  0  0  0  0  0  0  0
   -2.5646    2.7956   -2.7808 C   0  0  0  0  0  0  0  0  0  0  0  0
   -1.5986    3.6805   -3.2549 C   0  0  0  0  0  0  0  0  0  0  0  0
   -0.4246    3.8803   -2.5322 C   0  0  0  0  0  0  0  0  0  0  0  0
   -0.2132    3.1893   -1.3380 C   0  0  0  0  0  0  0  0  0  0  0  0
   -0.9219   -0.8470   -0.3212 C   0  0  0  0  0  0  0  0  0  0  0  0
   -1.8455   -1.5552    0.6552 C   0  0  0  0  0  0  0  0  0  0  0  0
   -3.2291   -1.5886    0.4136 C   0  0  0  0  0  0  0  0  0  0  0  0
   -4.0917   -2.2435    1.2949 C   0  0  0  0  0  0  0  0  0  0  0  0
   -3.5850   -2.8695    2.4311 C   0  0  0  0  0  0  0  0  0  0  0  0
   -2.2172   -2.8363    2.6907 C   0  0  0  0  0  0  0  0  0  0  0  0
   -1.3538   -2.1801    1.8121 C   0  0  0  0  0  0  0  0  0  0  0  0
   -0.4727   -5.7193   -1.6428 H   0  0  0  0  0  0  0  0  0  0  0  0
   -1.7328   -5.3367   -0.4370 H   0  0  0  0  0  0  0  0  0  0  0  0
   -2.1411   -5.3543   -2.1785 H   0  0  0  0  0  0  0  0  0  0  0  0
   -1.8296   -3.0881   -1.7051 H   0  0  0  0  0  0  0  0  0  0  0  0
    0.2424   -1.4463   -2.0366 H   0  0  0  0  0  0  0  0  0  0  0  0
    1.6948   -1.6832    0.6140 H   0  0  0  0  0  0  0  0  0  0  0  0
    2.3434   -1.3262   -0.9896 H   0  0  0  0  0  0  0  0  0  0  0  0
    1.2058    0.7956   -1.1153 H   0  0  0  0  0  0  0  0  0  0  0  0
    1.2999    0.1408    2.6246 H   0  0  0  0  0  0  0  0  0  0  0  0
    2.9367    1.2208    4.1214 H   0  0  0  0  0  0  0  0  0  0  0  0
    4.7282    2.6467    3.1968 H   0  0  0  0  0  0  0  0  0  0  0  0
    5.4987    2.9037   -0.4213 H   0  0  0  0  0  0  0  0  0  0  0  0
    6.0877    3.2359    1.2069 H   0  0  0  0  0  0  0  0  0  0  0  0
    4.8294    4.2763    0.4959 H   0  0  0  0  0  0  0  0  0  0  0  0
    3.2536    1.9173   -0.7805 H   0  0  0  0  0  0  0  0  0  0  0  0
   -0.4090    2.2014    1.1341 H   0  0  0  0  0  0  0  0  0  0  0  0
   -1.9048    1.3683    0.9290 H   0  0  0  0  0  0  0  0  0  0  0  0
   -3.1242    1.4298   -1.2221 H   0  0  0  0  0  0  0  0  0  0  0  0
   -3.4864    2.6497   -3.3378 H   0  0  0  0  0  0  0  0  0  0  0  0
   -1.7645    4.2218   -4.1826 H   0  0  0  0  0  0  0  0  0  0  0  0
    0.3249    4.5793   -2.8941 H   0  0  0  0  0  0  0  0  0  0  0  0
    0.7022    3.3670   -0.7773 H   0  0  0  0  0  0  0  0  0  0  0  0
   -1.5238   -0.4741   -1.1580 H   0  0  0  0  0  0  0  0  0  0  0  0
   -3.6492   -1.1001   -0.4622 H   0  0  0  0  0  0  0  0  0  0  0  0
   -5.1605   -2.2616    1.0982 H   0  0  0  0  0  0  0  0  0  0  0  0
   -4.2554   -3.3786    3.1184 H   0  0  0  0  0  0  0  0  0  0  0  0
   -1.8184   -3.3198    3.5788 H   0  0  0  0  0  0  0  0  0  0  0  0
   -0.2890   -2.1616    2.0363 H   0  0  0  0  0  0  0  0  0  0  0  0
  1  2  1  0
  2  3  1  0
  3  4  2  0
  3  5  1  0
  5  6  1  0
  6  7  1  0
  7  8  1  0
  8  9  2  0
  9 10  1  0
 10 11  2  0
 11 12  1  0
 12 13  1  0
 12 14  2  0
  7 15  1  0
 15 16  1  0
 16 17  1  0
 17 18  2  0
 18 19  1  0
 19 20  2  0
 20 21  1  0
 21 22  2  0
 15 23  1  0
 23 24  1  0
 24 25  2  0
 25 26  1  0
 26 27  2  0
 27 28  1  0
 28 29  2  0
 23  5  1  0
 29 24  1  0
 14  8  1  0
 22 17  1  0
  1 30  1  0
  1 31  1  0
  1 32  1  0
  2 33  1  0
  5 34  1  0
  6 35  1  0
  6 36  1  0
  7 37  1  0
  9 38  1  0
 10 39  1  0
 11 40  1  0
 13 41  1  0
 13 42  1  0
 13 43  1  0
 14 44  1  0
 16 45  1  0
 16 46  1  0
 18 47  1  0
 19 48  1  0
 20 49  1  0
 21 50  1  0
 22 51  1  0
 23 52  1  0
 25 53  1  0
 26 54  1  0
 27 55  1  0
 28 56  1  0
 29 57  1  0
M  END
>  <smiles>  (5) 
CNC(=O)C1CC(c2cccc(C)c2)N(Cc2ccccc2)C1c1ccccc1

>  <mol_id>  (5) 
run14a_mol_8

>  <run_id>  (5) 
run14a

>  <original_index>  (5) 
8

>  <Agent>  (5) 
5.4671

>  <Prior>  (5) 
18.3139

>  <Target>  (5) 
92.489

>  <Score>  (5) 
0.7386862

>  <SMILES>  (5) 
CNC(=O)C1CC(c2cccc(C)c2)N(Cc2ccccc2)C1c1ccccc1

>  <SMILES_state>  (5) 
1.0

>  <Input_Scaffold>  (5) 
c1ccc([*])cc1C1N([*])C(c2ccccc2)C(C(=O)N[*])C1

>  <R-groups>  (5) 
C*|c1ccccc1C*|*C

>  <Scaffold>  (5) 
c1ccc(CN2C(c3ccccc3)CCC2c2ccccc2)cc1

>  <DENV_Activity>  (5) 
0.9493959

>  <DENV_Activity (raw)>  (5) 
7.5676

>  <Stereo_Centers>  (5) 
1e-05

>  <Stereo_Centers (raw)>  (5) 
3.0

>  <QED>  (5) 
0.6678865

>  <QED (raw)>  (5) 
0.6679

>  <SA>  (5) 
0.5485839

>  <SA (raw)>  (5) 
3.2024

>  <MW>  (5) 
0.9995667

>  <MW (raw)>  (5) 
384.523

>  <Heavy_Atoms>  (5) 
0.9434421

>  <Heavy_Atoms (raw)>  (5) 
29.0

>  <LogP>  (5) 
0.4477845

>  <LogP (raw)>  (5) 
5.0455

>  <TPSA>  (5) 
0.7105401

>  <TPSA (raw)>  (5) 
32.34

>  <HBA>  (5) 
0.9968477

>  <HBA (raw)>  (5) 
2.0

>  <HBD>  (5) 
0.9467598

>  <HBD (raw)>  (5) 
1.0

>  <Rotatable_Bonds>  (5) 
0.3453354

>  <Rotatable_Bonds (raw)>  (5) 
5.0

>  <Ring_Count>  (5) 
0.1279931

>  <Ring_Count (raw)>  (5) 
4.0

>  <Aromatic_Rings>  (5) 
0.0031523

>  <Aromatic_Rings (raw)>  (5) 
3.0

>  <Stability_Alerts>  (5) 
1.0

>  <Stability_Alerts (raw)>  (5) 
1.0

>  <matchting_patterns (Stability_Alerts)>  (5) 
[]

>  <step>  (5) 
1.0

$$$$
run14a_mol_8
     RDKit          3D

 57 60  0  0  0  0  0  0  0  0999 V2000
   -1.7425   -3.1344    3.7900 C   0  0  0  0  0  0  0  0  0  0  0  0
   -1.1300   -2.5478    2.6231 N   0  0  0  0  0  0  0  0  0  0  0  0
   -1.6097   -2.8287    1.3615 C   0  0  0  0  0  0  0  0  0  0  0  0
   -2.5332   -3.6175    1.1737 O   0  0  0  0  0  0  0  0  0  0  0  0
   -0.9430   -2.0974    0.2051 C   0  0  0  0  0  0  0  0  0  0  0  0
    0.5744   -2.2486    0.1871 C   0  0  0  0  0  0  0  0  0  0  0  0
    1.1078   -0.8750    0.5846 C   0  0  0  0  0  0  0  0  0  0  0  0
    2.5134   -0.6577    0.0605 C   0  0  0  0  0  0  0  0  0  0  0  0
    2.7534   -0.3240   -1.2812 C   0  0  0  0  0  0  0  0  0  0  0  0
    4.0550   -0.1487   -1.7494 C   0  0  0  0  0  0  0  0  0  0  0  0
    5.1361   -0.3063   -0.8839 C   0  0  0  0  0  0  0  0  0  0  0  0
    4.9246   -0.6325    0.4598 C   0  0  0  0  0  0  0  0  0  0  0  0
    6.0896   -0.8401    1.3819 C   0  0  0  0  0  0  0  0  0  0  0  0
    3.6132   -0.8209    0.9192 C   0  0  0  0  0  0  0  0  0  0  0  0
    0.1050    0.0613    0.0437 N   0  0  0  0  0  0  0  0  0  0  0  0
    0.2155    1.3852    0.6829 C   0  0  0  0  0  0  0  0  0  0  0  0
   -0.5002    2.4866   -0.0638 C   0  0  0  0  0  0  0  0  0  0  0  0
   -1.6817    3.0495    0.4384 C   0  0  0  0  0  0  0  0  0  0  0  0
   -2.3368    4.0624   -0.2642 C   0  0  0  0  0  0  0  0  0  0  0  0
   -1.8168    4.5250   -1.4717 C   0  0  0  0  0  0  0  0  0  0  0  0
   -0.6419    3.9751   -1.9801 C   0  0  0  0  0  0  0  0  0  0  0  0
    0.0132    2.9612   -1.2805 C   0  0  0  0  0  0  0  0  0  0  0  0
   -1.2153   -0.5841    0.2596 C   0  0  0  0  0  0  0  0  0  0  0  0
   -2.2690   -0.2121   -0.7709 C   0  0  0  0  0  0  0  0  0  0  0  0
   -3.6185   -0.1422   -0.3883 C   0  0  0  0  0  0  0  0  0  0  0  0
   -4.6089    0.1720   -1.3210 C   0  0  0  0  0  0  0  0  0  0  0  0
   -4.2659    0.4126   -2.6494 C   0  0  0  0  0  0  0  0  0  0  0  0
   -2.9340    0.3323   -3.0481 C   0  0  0  0  0  0  0  0  0  0  0  0
   -1.9434    0.0145   -2.1174 C   0  0  0  0  0  0  0  0  0  0  0  0
   -2.6786   -2.6084    3.9953 H   0  0  0  0  0  0  0  0  0  0  0  0
   -1.9491   -4.1942    3.6187 H   0  0  0  0  0  0  0  0  0  0  0  0
   -1.0600   -3.0198    4.6352 H   0  0  0  0  0  0  0  0  0  0  0  0
   -0.5193   -1.7571    2.7647 H   0  0  0  0  0  0  0  0  0  0  0  0
   -1.3320   -2.5581   -0.7138 H   0  0  0  0  0  0  0  0  0  0  0  0
    0.8889   -2.5171   -0.8305 H   0  0  0  0  0  0  0  0  0  0  0  0
    0.9446   -3.0364    0.8527 H   0  0  0  0  0  0  0  0  0  0  0  0
    1.1160   -0.8017    1.6810 H   0  0  0  0  0  0  0  0  0  0  0  0
    1.9196   -0.2002   -1.9697 H   0  0  0  0  0  0  0  0  0  0  0  0
    4.2257    0.1070   -2.7918 H   0  0  0  0  0  0  0  0  0  0  0  0
    6.1459   -0.1742   -1.2656 H   0  0  0  0  0  0  0  0  0  0  0  0
    6.9385   -0.2144    1.0868 H   0  0  0  0  0  0  0  0  0  0  0  0
    6.3998   -1.8894    1.3623 H   0  0  0  0  0  0  0  0  0  0  0  0
    5.8274   -0.5669    2.4094 H   0  0  0  0  0  0  0  0  0  0  0  0
    3.4507   -1.0982    1.9589 H   0  0  0  0  0  0  0  0  0  0  0  0
   -0.1217    1.3498    1.7278 H   0  0  0  0  0  0  0  0  0  0  0  0
    1.2683    1.6946    0.7352 H   0  0  0  0  0  0  0  0  0  0  0  0
   -2.1083    2.6926    1.3718 H   0  0  0  0  0  0  0  0  0  0  0  0
   -3.2589    4.4844    0.1261 H   0  0  0  0  0  0  0  0  0  0  0  0
   -2.3317    5.3087   -2.0204 H   0  0  0  0  0  0  0  0  0  0  0  0
   -0.2393    4.3292   -2.9249 H   0  0  0  0  0  0  0  0  0  0  0  0
    0.9234    2.5287   -1.6898 H   0  0  0  0  0  0  0  0  0  0  0  0
   -1.5934   -0.3033    1.2522 H   0  0  0  0  0  0  0  0  0  0  0  0
   -3.9108   -0.3383    0.6407 H   0  0  0  0  0  0  0  0  0  0  0  0
   -5.6489    0.2249   -1.0110 H   0  0  0  0  0  0  0  0  0  0  0  0
   -5.0362    0.6596   -3.3744 H   0  0  0  0  0  0  0  0  0  0  0  0
   -2.6629    0.5197   -4.0832 H   0  0  0  0  0  0  0  0  0  0  0  0
   -0.9080   -0.0414   -2.4451 H   0  0  0  0  0  0  0  0  0  0  0  0
  1  2  1  0
  2  3  1  0
  3  4  2  0
  3  5  1  0
  5  6  1  0
  6  7  1  0
  7  8  1  0
  8  9  2  0
  9 10  1  0
 10 11  2  0
 11 12  1  0
 12 13  1  0
 12 14  2  0
  7 15  1  0
 15 16  1  0
 16 17  1  0
 17 18  2  0
 18 19  1  0
 19 20  2  0
 20 21  1  0
 21 22  2  0
 15 23  1  0
 23 24  1  0
 24 25  2  0
 25 26  1  0
 26 27  2  0
 27 28  1  0
 28 29  2  0
 23  5  1  0
 29 24  1  0
 14  8  1  0
 22 17  1  0
  1 30  1  0
  1 31  1  0
  1 32  1  0
  2 33  1  0
  5 34  1  0
  6 35  1  0
  6 36  1  0
  7 37  1  0
  9 38  1  0
 10 39  1  0
 11 40  1  0
 13 41  1  0
 13 42  1  0
 13 43  1  0
 14 44  1  0
 16 45  1  0
 16 46  1  0
 18 47  1  0
 19 48  1  0
 20 49  1  0
 21 50  1  0
 22 51  1  0
 23 52  1  0
 25 53  1  0
 26 54  1  0
 27 55  1  0
 28 56  1  0
 29 57  1  0
M  END
>  <smiles>  (6) 
CNC(=O)C1CC(c2cccc(C)c2)N(Cc2ccccc2)C1c1ccccc1

>  <mol_id>  (6) 
run14a_mol_8

>  <run_id>  (6) 
run14a

>  <original_index>  (6) 
8

>  <Agent>  (6) 
5.4671

>  <Prior>  (6) 
18.3139

>  <Target>  (6) 
92.489

>  <Score>  (6) 
0.7386862

>  <SMILES>  (6) 
CNC(=O)C1CC(c2cccc(C)c2)N(Cc2ccccc2)C1c1ccccc1

>  <SMILES_state>  (6) 
1.0

>  <Input_Scaffold>  (6) 
c1ccc([*])cc1C1N([*])C(c2ccccc2)C(C(=O)N[*])C1

>  <R-groups>  (6) 
C*|c1ccccc1C*|*C

>  <Scaffold>  (6) 
c1ccc(CN2C(c3ccccc3)CCC2c2ccccc2)cc1

>  <DENV_Activity>  (6) 
0.9493959

>  <DENV_Activity (raw)>  (6) 
7.5676

>  <Stereo_Centers>  (6) 
1e-05

>  <Stereo_Centers (raw)>  (6) 
3.0

>  <QED>  (6) 
0.6678865

>  <QED (raw)>  (6) 
0.6679

>  <SA>  (6) 
0.5485839

>  <SA (raw)>  (6) 
3.2024

>  <MW>  (6) 
0.9995667

>  <MW (raw)>  (6) 
384.523

>  <Heavy_Atoms>  (6) 
0.9434421

>  <Heavy_Atoms (raw)>  (6) 
29.0

>  <LogP>  (6) 
0.4477845

>  <LogP (raw)>  (6) 
5.0455

>  <TPSA>  (6) 
0.7105401

>  <TPSA (raw)>  (6) 
32.34

>  <HBA>  (6) 
0.9968477

>  <HBA (raw)>  (6) 
2.0

>  <HBD>  (6) 
0.9467598

>  <HBD (raw)>  (6) 
1.0

>  <Rotatable_Bonds>  (6) 
0.3453354

>  <Rotatable_Bonds (raw)>  (6) 
5.0

>  <Ring_Count>  (6) 
0.1279931

>  <Ring_Count (raw)>  (6) 
4.0

>  <Aromatic_Rings>  (6) 
0.0031523

>  <Aromatic_Rings (raw)>  (6) 
3.0

>  <Stability_Alerts>  (6) 
1.0

>  <Stability_Alerts (raw)>  (6) 
1.0

>  <matchting_patterns (Stability_Alerts)>  (6) 
[]

>  <step>  (6) 
1.0

$$$$
run14a_mol_8
     RDKit          3D

 57 60  0  0  0  0  0  0  0  0999 V2000
   -0.5786   -4.8807    0.7484 C   0  0  0  0  0  0  0  0  0  0  0  0
   -0.2784   -3.4713    0.8051 N   0  0  0  0  0  0  0  0  0  0  0  0
   -0.8887   -2.6764    1.7505 C   0  0  0  0  0  0  0  0  0  0  0  0
   -1.6069   -3.1313    2.6395 O   0  0  0  0  0  0  0  0  0  0  0  0
   -0.6114   -1.1823    1.6633 C   0  0  0  0  0  0  0  0  0  0  0  0
    0.8860   -0.8669    1.6754 C   0  0  0  0  0  0  0  0  0  0  0  0
    1.1530   -0.3132    0.2805 C   0  0  0  0  0  0  0  0  0  0  0  0
    2.4630    0.4093    0.0291 C   0  0  0  0  0  0  0  0  0  0  0  0
    2.7154    0.9305   -1.2526 C   0  0  0  0  0  0  0  0  0  0  0  0
    3.9149    1.5799   -1.5422 C   0  0  0  0  0  0  0  0  0  0  0  0
    4.8888    1.7156   -0.5562 C   0  0  0  0  0  0  0  0  0  0  0  0
    4.6668    1.2089    0.7279 C   0  0  0  0  0  0  0  0  0  0  0  0
    5.7315    1.3184    1.7799 C   0  0  0  0  0  0  0  0  0  0  0  0
    3.4618    0.5443    1.0062 C   0  0  0  0  0  0  0  0  0  0  0  0
   -0.0812    0.4423   -0.0517 N   0  0  0  0  0  0  0  0  0  0  0  0
   -0.1218    1.7946    0.5476 C   0  0  0  0  0  0  0  0  0  0  0  0
   -1.2869    2.6320    0.0508 C   0  0  0  0  0  0  0  0  0  0  0  0
   -2.0938    3.3342    0.9583 C   0  0  0  0  0  0  0  0  0  0  0  0
   -3.1543    4.1201    0.5030 C   0  0  0  0  0  0  0  0  0  0  0  0
   -3.4152    4.2188   -0.8624 C   0  0  0  0  0  0  0  0  0  0  0  0
   -2.6143    3.5354   -1.7748 C   0  0  0  0  0  0  0  0  0  0  0  0
   -1.5529    2.7509   -1.3217 C   0  0  0  0  0  0  0  0  0  0  0  0
   -1.2006   -0.4075    0.4613 C   0  0  0  0  0  0  0  0  0  0  0  0
   -1.8808   -1.2230   -0.6359 C   0  0  0  0  0  0  0  0  0  0  0  0
   -3.0917   -1.8785   -0.3456 C   0  0  0  0  0  0  0  0  0  0  0  0
   -3.7461   -2.6459   -1.3114 C   0  0  0  0  0  0  0  0  0  0  0  0
   -3.2099   -2.7612   -2.5903 C   0  0  0  0  0  0  0  0  0  0  0  0
   -2.0248   -2.1026   -2.9055 C   0  0  0  0  0  0  0  0  0  0  0  0
   -1.3688   -1.3361   -1.9388 C   0  0  0  0  0  0  0  0  0  0  0  0
   -0.5095   -5.3204    1.7470 H   0  0  0  0  0  0  0  0  0  0  0  0
   -1.5932   -5.0108    0.3623 H   0  0  0  0  0  0  0  0  0  0  0  0
    0.1379   -5.3614    0.0785 H   0  0  0  0  0  0  0  0  0  0  0  0
   -0.0307   -3.0354   -0.0739 H   0  0  0  0  0  0  0  0  0  0  0  0
   -1.0285   -0.7506    2.5853 H   0  0  0  0  0  0  0  0  0  0  0  0
    1.0848   -0.1149    2.4498 H   0  0  0  0  0  0  0  0  0  0  0  0
    1.5156   -1.7349    1.8998 H   0  0  0  0  0  0  0  0  0  0  0  0
    1.1958   -1.1779   -0.3976 H   0  0  0  0  0  0  0  0  0  0  0  0
    1.9631    0.8355   -2.0338 H   0  0  0  0  0  0  0  0  0  0  0  0
    4.0894    1.9787   -2.5380 H   0  0  0  0  0  0  0  0  0  0  0  0
    5.8229    2.2181   -0.7961 H   0  0  0  0  0  0  0  0  0  0  0  0
    5.2869    1.4035    2.7770 H   0  0  0  0  0  0  0  0  0  0  0  0
    6.3761    0.4345    1.7528 H   0  0  0  0  0  0  0  0  0  0  0  0
    6.3473    2.2102    1.6226 H   0  0  0  0  0  0  0  0  0  0  0  0
    3.3200    0.1313    2.0019 H   0  0  0  0  0  0  0  0  0  0  0  0
   -0.1439    1.7383    1.6433 H   0  0  0  0  0  0  0  0  0  0  0  0
    0.7740    2.3686    0.2846 H   0  0  0  0  0  0  0  0  0  0  0  0
   -1.9038    3.2725    2.0271 H   0  0  0  0  0  0  0  0  0  0  0  0
   -3.7772    4.6562    1.2142 H   0  0  0  0  0  0  0  0  0  0  0  0
   -4.2420    4.8287   -1.2158 H   0  0  0  0  0  0  0  0  0  0  0  0
   -2.8158    3.6102   -2.8399 H   0  0  0  0  0  0  0  0  0  0  0  0
   -0.9349    2.2195   -2.0422 H   0  0  0  0  0  0  0  0  0  0  0  0
   -2.0027    0.2363    0.8478 H   0  0  0  0  0  0  0  0  0  0  0  0
   -3.5348   -1.8008    0.6466 H   0  0  0  0  0  0  0  0  0  0  0  0
   -4.6768   -3.1494   -1.0629 H   0  0  0  0  0  0  0  0  0  0  0  0
   -3.7220   -3.3532   -3.3439 H   0  0  0  0  0  0  0  0  0  0  0  0
   -1.6139   -2.1750   -3.9092 H   0  0  0  0  0  0  0  0  0  0  0  0
   -0.4580   -0.8157   -2.2250 H   0  0  0  0  0  0  0  0  0  0  0  0
  1  2  1  0
  2  3  1  0
  3  4  2  0
  3  5  1  0
  5  6  1  0
  6  7  1  0
  7  8  1  0
  8  9  2  0
  9 10  1  0
 10 11  2  0
 11 12  1  0
 12 13  1  0
 12 14  2  0
  7 15  1  0
 15 16  1  0
 16 17  1  0
 17 18  2  0
 18 19  1  0
 19 20  2  0
 20 21  1  0
 21 22  2  0
 15 23  1  0
 23 24  1  0
 24 25  2  0
 25 26  1  0
 26 27  2  0
 27 28  1  0
 28 29  2  0
 23  5  1  0
 29 24  1  0
 14  8  1  0
 22 17  1  0
  1 30  1  0
  1 31  1  0
  1 32  1  0
  2 33  1  0
  5 34  1  0
  6 35  1  0
  6 36  1  0
  7 37  1  0
  9 38  1  0
 10 39  1  0
 11 40  1  0
 13 41  1  0
 13 42  1  0
 13 43  1  0
 14 44  1  0
 16 45  1  0
 16 46  1  0
 18 47  1  0
 19 48  1  0
 20 49  1  0
 21 50  1  0
 22 51  1  0
 23 52  1  0
 25 53  1  0
 26 54  1  0
 27 55  1  0
 28 56  1  0
 29 57  1  0
M  END
>  <smiles>  (7) 
CNC(=O)C1CC(c2cccc(C)c2)N(Cc2ccccc2)C1c1ccccc1

>  <mol_id>  (7) 
run14a_mol_8

>  <run_id>  (7) 
run14a

>  <original_index>  (7) 
8

>  <Agent>  (7) 
5.4671

>  <Prior>  (7) 
18.3139

>  <Target>  (7) 
92.489

>  <Score>  (7) 
0.7386862

>  <SMILES>  (7) 
CNC(=O)C1CC(c2cccc(C)c2)N(Cc2ccccc2)C1c1ccccc1

>  <SMILES_state>  (7) 
1.0

>  <Input_Scaffold>  (7) 
c1ccc([*])cc1C1N([*])C(c2ccccc2)C(C(=O)N[*])C1

>  <R-groups>  (7) 
C*|c1ccccc1C*|*C

>  <Scaffold>  (7) 
c1ccc(CN2C(c3ccccc3)CCC2c2ccccc2)cc1

>  <DENV_Activity>  (7) 
0.9493959

>  <DENV_Activity (raw)>  (7) 
7.5676

>  <Stereo_Centers>  (7) 
1e-05

>  <Stereo_Centers (raw)>  (7) 
3.0

>  <QED>  (7) 
0.6678865

>  <QED (raw)>  (7) 
0.6679

>  <SA>  (7) 
0.5485839

>  <SA (raw)>  (7) 
3.2024

>  <MW>  (7) 
0.9995667

>  <MW (raw)>  (7) 
384.523

>  <Heavy_Atoms>  (7) 
0.9434421

>  <Heavy_Atoms (raw)>  (7) 
29.0

>  <LogP>  (7) 
0.4477845

>  <LogP (raw)>  (7) 
5.0455

>  <TPSA>  (7) 
0.7105401

>  <TPSA (raw)>  (7) 
32.34

>  <HBA>  (7) 
0.9968477

>  <HBA (raw)>  (7) 
2.0

>  <HBD>  (7) 
0.9467598

>  <HBD (raw)>  (7) 
1.0

>  <Rotatable_Bonds>  (7) 
0.3453354

>  <Rotatable_Bonds (raw)>  (7) 
5.0

>  <Ring_Count>  (7) 
0.1279931

>  <Ring_Count (raw)>  (7) 
4.0

>  <Aromatic_Rings>  (7) 
0.0031523

>  <Aromatic_Rings (raw)>  (7) 
3.0

>  <Stability_Alerts>  (7) 
1.0

>  <Stability_Alerts (raw)>  (7) 
1.0

>  <matchting_patterns (Stability_Alerts)>  (7) 
[]

>  <step>  (7) 
1.0

$$$$
run14a_mol_8
     RDKit          3D

 57 60  0  0  0  0  0  0  0  0999 V2000
   -2.7548   -0.8584   -3.6784 C   0  0  0  0  0  0  0  0  0  0  0  0
   -2.1349   -1.0872   -2.4004 N   0  0  0  0  0  0  0  0  0  0  0  0
   -2.0627   -2.3384   -1.8340 C   0  0  0  0  0  0  0  0  0  0  0  0
   -2.5692   -3.3350   -2.3432 O   0  0  0  0  0  0  0  0  0  0  0  0
   -1.2651   -2.4248   -0.5372 C   0  0  0  0  0  0  0  0  0  0  0  0
    0.2241   -2.1613   -0.7901 C   0  0  0  0  0  0  0  0  0  0  0  0
    0.5564   -0.8760   -0.0148 C   0  0  0  0  0  0  0  0  0  0  0  0
    1.6077   -0.0587   -0.7385 C   0  0  0  0  0  0  0  0  0  0  0  0
    1.3388    0.6192   -1.9356 C   0  0  0  0  0  0  0  0  0  0  0  0
    2.3371    1.3464   -2.5848 C   0  0  0  0  0  0  0  0  0  0  0  0
    3.6225    1.4042   -2.0501 C   0  0  0  0  0  0  0  0  0  0  0  0
    3.9189    0.7430   -0.8550 C   0  0  0  0  0  0  0  0  0  0  0  0
    5.3091    0.7757   -0.2934 C   0  0  0  0  0  0  0  0  0  0  0  0
    2.9127    0.0037   -0.2167 C   0  0  0  0  0  0  0  0  0  0  0  0
   -0.7612   -0.2410    0.1769 N   0  0  0  0  0  0  0  0  0  0  0  0
   -0.7843    0.8357    1.1742 C   0  0  0  0  0  0  0  0  0  0  0  0
   -0.3909    2.1808    0.6031 C   0  0  0  0  0  0  0  0  0  0  0  0
    0.7788    2.8269    1.0257 C   0  0  0  0  0  0  0  0  0  0  0  0
    1.1346    4.0671    0.4927 C   0  0  0  0  0  0  0  0  0  0  0  0
    0.3221    4.6776   -0.4611 C   0  0  0  0  0  0  0  0  0  0  0  0
   -0.8470    4.0492   -0.8849 C   0  0  0  0  0  0  0  0  0  0  0  0
   -1.2026    2.8078   -0.3559 C   0  0  0  0  0  0  0  0  0  0  0  0
   -1.7109   -1.3500    0.4651 C   0  0  0  0  0  0  0  0  0  0  0  0
   -1.7704   -1.8347    1.9159 C   0  0  0  0  0  0  0  0  0  0  0  0
   -0.8348   -2.7163    2.4806 C   0  0  0  0  0  0  0  0  0  0  0  0
   -0.9377   -3.1172    3.8159 C   0  0  0  0  0  0  0  0  0  0  0  0
   -1.9783   -2.6466    4.6112 C   0  0  0  0  0  0  0  0  0  0  0  0
   -2.9200   -1.7767    4.0720 C   0  0  0  0  0  0  0  0  0  0  0  0
   -2.8177   -1.3765    2.7379 C   0  0  0  0  0  0  0  0  0  0  0  0
   -3.0377    0.1948   -3.7434 H   0  0  0  0  0  0  0  0  0  0  0  0
   -2.0310   -1.0950   -4.4624 H   0  0  0  0  0  0  0  0  0  0  0  0
   -3.6388   -1.4908   -3.7949 H   0  0  0  0  0  0  0  0  0  0  0  0
   -1.6286   -0.3296   -1.9480 H   0  0  0  0  0  0  0  0  0  0  0  0
   -1.4148   -3.4406   -0.1507 H   0  0  0  0  0  0  0  0  0  0  0  0
    0.4418   -2.0873   -1.8624 H   0  0  0  0  0  0  0  0  0  0  0  0
    0.8291   -2.9916   -0.4055 H   0  0  0  0  0  0  0  0  0  0  0  0
    0.9606   -1.1608    0.9655 H   0  0  0  0  0  0  0  0  0  0  0  0
    0.3437    0.6009   -2.3675 H   0  0  0  0  0  0  0  0  0  0  0  0
    2.1086    1.8735   -3.5071 H   0  0  0  0  0  0  0  0  0  0  0  0
    4.3896    1.9724   -2.5705 H   0  0  0  0  0  0  0  0  0  0  0  0
    5.2892    0.7197    0.8001 H   0  0  0  0  0  0  0  0  0  0  0  0
    5.8176    1.7080   -0.5607 H   0  0  0  0  0  0  0  0  0  0  0  0
    5.8893   -0.0672   -0.6812 H   0  0  0  0  0  0  0  0  0  0  0  0
    3.1507   -0.5262    0.7038 H   0  0  0  0  0  0  0  0  0  0  0  0
   -1.8058    0.9824    1.5488 H   0  0  0  0  0  0  0  0  0  0  0  0
   -0.1734    0.5909    2.0527 H   0  0  0  0  0  0  0  0  0  0  0  0
    1.4305    2.3590    1.7592 H   0  0  0  0  0  0  0  0  0  0  0  0
    2.0511    4.5523    0.8169 H   0  0  0  0  0  0  0  0  0  0  0  0
    0.6032    5.6414   -0.8765 H   0  0  0  0  0  0  0  0  0  0  0  0
   -1.4800    4.5241   -1.6292 H   0  0  0  0  0  0  0  0  0  0  0  0
   -2.1145    2.3230   -0.6957 H   0  0  0  0  0  0  0  0  0  0  0  0
   -2.7208   -1.0052    0.2046 H   0  0  0  0  0  0  0  0  0  0  0  0
   -0.0115   -3.1155    1.8957 H   0  0  0  0  0  0  0  0  0  0  0  0
   -0.2043   -3.8025    4.2339 H   0  0  0  0  0  0  0  0  0  0  0  0
   -2.0574   -2.9613    5.6483 H   0  0  0  0  0  0  0  0  0  0  0  0
   -3.7371   -1.4099    4.6880 H   0  0  0  0  0  0  0  0  0  0  0  0
   -3.5700   -0.6968    2.3409 H   0  0  0  0  0  0  0  0  0  0  0  0
  1  2  1  0
  2  3  1  0
  3  4  2  0
  3  5  1  0
  5  6  1  0
  6  7  1  0
  7  8  1  0
  8  9  2  0
  9 10  1  0
 10 11  2  0
 11 12  1  0
 12 13  1  0
 12 14  2  0
  7 15  1  0
 15 16  1  0
 16 17  1  0
 17 18  2  0
 18 19  1  0
 19 20  2  0
 20 21  1  0
 21 22  2  0
 15 23  1  0
 23 24  1  0
 24 25  2  0
 25 26  1  0
 26 27  2  0
 27 28  1  0
 28 29  2  0
 23  5  1  0
 29 24  1  0
 14  8  1  0
 22 17  1  0
  1 30  1  0
  1 31  1  0
  1 32  1  0
  2 33  1  0
  5 34  1  0
  6 35  1  0
  6 36  1  0
  7 37  1  0
  9 38  1  0
 10 39  1  0
 11 40  1  0
 13 41  1  0
 13 42  1  0
 13 43  1  0
 14 44  1  0
 16 45  1  0
 16 46  1  0
 18 47  1  0
 19 48  1  0
 20 49  1  0
 21 50  1  0
 22 51  1  0
 23 52  1  0
 25 53  1  0
 26 54  1  0
 27 55  1  0
 28 56  1  0
 29 57  1  0
M  END
>  <smiles>  (8) 
CNC(=O)C1CC(c2cccc(C)c2)N(Cc2ccccc2)C1c1ccccc1

>  <mol_id>  (8) 
run14a_mol_8

>  <run_id>  (8) 
run14a

>  <original_index>  (8) 
8

>  <Agent>  (8) 
5.4671

>  <Prior>  (8) 
18.3139

>  <Target>  (8) 
92.489

>  <Score>  (8) 
0.7386862

>  <SMILES>  (8) 
CNC(=O)C1CC(c2cccc(C)c2)N(Cc2ccccc2)C1c1ccccc1

>  <SMILES_state>  (8) 
1.0

>  <Input_Scaffold>  (8) 
c1ccc([*])cc1C1N([*])C(c2ccccc2)C(C(=O)N[*])C1

>  <R-groups>  (8) 
C*|c1ccccc1C*|*C

>  <Scaffold>  (8) 
c1ccc(CN2C(c3ccccc3)CCC2c2ccccc2)cc1

>  <DENV_Activity>  (8) 
0.9493959

>  <DENV_Activity (raw)>  (8) 
7.5676

>  <Stereo_Centers>  (8) 
1e-05

>  <Stereo_Centers (raw)>  (8) 
3.0

>  <QED>  (8) 
0.6678865

>  <QED (raw)>  (8) 
0.6679

>  <SA>  (8) 
0.5485839

>  <SA (raw)>  (8) 
3.2024

>  <MW>  (8) 
0.9995667

>  <MW (raw)>  (8) 
384.523

>  <Heavy_Atoms>  (8) 
0.9434421

>  <Heavy_Atoms (raw)>  (8) 
29.0

>  <LogP>  (8) 
0.4477845

>  <LogP (raw)>  (8) 
5.0455

>  <TPSA>  (8) 
0.7105401

>  <TPSA (raw)>  (8) 
32.34

>  <HBA>  (8) 
0.9968477

>  <HBA (raw)>  (8) 
2.0

>  <HBD>  (8) 
0.9467598

>  <HBD (raw)>  (8) 
1.0

>  <Rotatable_Bonds>  (8) 
0.3453354

>  <Rotatable_Bonds (raw)>  (8) 
5.0

>  <Ring_Count>  (8) 
0.1279931

>  <Ring_Count (raw)>  (8) 
4.0

>  <Aromatic_Rings>  (8) 
0.0031523

>  <Aromatic_Rings (raw)>  (8) 
3.0

>  <Stability_Alerts>  (8) 
1.0

>  <Stability_Alerts (raw)>  (8) 
1.0

>  <matchting_patterns (Stability_Alerts)>  (8) 
[]

>  <step>  (8) 
1.0

$$$$
