run14a_mol_0
     RDKit          3D

 65 68  0  0  0  0  0  0  0  0999 V2000
   -4.4866    2.1368   -2.0305 C   0  0  0  0  0  0  0  0  0  0  0  0
   -3.1901    1.5426   -1.8124 N   0  0  0  0  0  0  0  0  0  0  0  0
   -2.9370    0.2494   -2.2103 C   0  0  0  0  0  0  0  0  0  0  0  0
   -3.8166   -0.4729   -2.6758 O   0  0  0  0  0  0  0  0  0  0  0  0
   -1.5294   -0.2792   -1.9706 C   0  0  0  0  0  0  0  0  0  0  0  0
   -0.3897    0.6750   -2.3409 C   0  0  0  0  0  0  0  0  0  0  0  0
    0.3624    0.9731   -1.0368 C   0  0  0  0  0  0  0  0  0  0  0  0
    0.0608    2.3767   -0.5218 C   0  0  0  0  0  0  0  0  0  0  0  0
    0.8671    3.4299   -0.9919 C   0  0  0  0  0  0  0  0  0  0  0  0
    0.6415    4.7508   -0.6014 C   0  0  0  0  0  0  0  0  0  0  0  0
   -0.4016    5.0512    0.2693 C   0  0  0  0  0  0  0  0  0  0  0  0
   -1.2223    4.0303    0.7624 C   0  0  0  0  0  0  0  0  0  0  0  0
   -2.3739    4.3413    1.6880 C   0  0  0  0  0  0  0  0  0  0  0  0
   -3.5662    4.3602    1.0295 F   0  0  0  0  0  0  0  0  0  0  0  0
   -2.5129    3.4256    2.6865 F   0  0  0  0  0  0  0  0  0  0  0  0
   -2.2661    5.5514    2.3032 F   0  0  0  0  0  0  0  0  0  0  0  0
   -0.9849    2.7035    0.3548 C   0  0  0  0  0  0  0  0  0  0  0  0
    0.0498   -0.1898   -0.2043 N   0  0  0  0  0  0  0  0  0  0  0  0
    0.4500   -0.1799    1.1976 C   0  0  0  0  0  0  0  0  0  0  0  0
    1.9515    0.0465    1.4171 C   0  0  0  0  0  0  0  0  0  0  0  0
    2.8124   -1.0342    0.7585 C   0  0  0  0  0  0  0  0  0  0  0  0
    4.2774   -0.7884    1.0135 C   0  0  0  0  0  0  0  0  0  0  0  0
    4.9197   -1.3949    2.0903 C   0  0  0  0  0  0  0  0  0  0  0  0
    6.2689   -1.1281    2.3044 C   0  0  0  0  0  0  0  0  0  0  0  0
    6.9369   -0.2647    1.4453 C   0  0  0  0  0  0  0  0  0  0  0  0
    6.2228    0.3008    0.4030 C   0  0  0  0  0  0  0  0  0  0  0  0
    4.9134    0.0622    0.1706 N   0  0  0  0  0  0  0  0  0  0  0  0
   -1.3220   -0.6345   -0.4907 C   0  0  0  0  0  0  0  0  0  0  0  0
   -1.5312   -2.1236   -0.2556 C   0  0  0  0  0  0  0  0  0  0  0  0
   -2.7487   -2.5802    0.2692 C   0  0  0  0  0  0  0  0  0  0  0  0
   -2.9704   -3.9443    0.4768 C   0  0  0  0  0  0  0  0  0  0  0  0
   -1.9787   -4.8811    0.1680 C   0  0  0  0  0  0  0  0  0  0  0  0
   -2.2329   -6.3470    0.3560 C   0  0  0  0  0  0  0  0  0  0  0  0
   -0.7724   -4.4350   -0.3807 C   0  0  0  0  0  0  0  0  0  0  0  0
   -0.5511   -3.0717   -0.5901 C   0  0  0  0  0  0  0  0  0  0  0  0
   -4.5912    2.3720   -3.0929 H   0  0  0  0  0  0  0  0  0  0  0  0
   -4.5517    3.0529   -1.4390 H   0  0  0  0  0  0  0  0  0  0  0  0
   -5.2758    1.4422   -1.7306 H   0  0  0  0  0  0  0  0  0  0  0  0
   -2.4128    2.1804   -1.7139 H   0  0  0  0  0  0  0  0  0  0  0  0
   -1.4289   -1.1600   -2.6214 H   0  0  0  0  0  0  0  0  0  0  0  0
    0.2904    0.1382   -3.0173 H   0  0  0  0  0  0  0  0  0  0  0  0
   -0.7171    1.5689   -2.8817 H   0  0  0  0  0  0  0  0  0  0  0  0
    1.4380    0.9386   -1.2551 H   0  0  0  0  0  0  0  0  0  0  0  0
    1.6924    3.2239   -1.6735 H   0  0  0  0  0  0  0  0  0  0  0  0
    1.2833    5.5441   -0.9778 H   0  0  0  0  0  0  0  0  0  0  0  0
   -0.5690    6.0858    0.5654 H   0  0  0  0  0  0  0  0  0  0  0  0
   -1.6422    1.9300    0.7443 H   0  0  0  0  0  0  0  0  0  0  0  0
   -0.1075    0.5666    1.7716 H   0  0  0  0  0  0  0  0  0  0  0  0
    0.2019   -1.1449    1.6568 H   0  0  0  0  0  0  0  0  0  0  0  0
    2.1415    0.0519    2.4986 H   0  0  0  0  0  0  0  0  0  0  0  0
    2.2466    1.0397    1.0577 H   0  0  0  0  0  0  0  0  0  0  0  0
    2.5301   -2.0272    1.1293 H   0  0  0  0  0  0  0  0  0  0  0  0
    2.6521   -1.0520   -0.3259 H   0  0  0  0  0  0  0  0  0  0  0  0
    4.3823   -2.0643    2.7540 H   0  0  0  0  0  0  0  0  0  0  0  0
    6.7934   -1.5904    3.1356 H   0  0  0  0  0  0  0  0  0  0  0  0
    7.9873   -0.0368    1.5845 H   0  0  0  0  0  0  0  0  0  0  0  0
    6.6987    0.9829   -0.2953 H   0  0  0  0  0  0  0  0  0  0  0  0
   -2.0265   -0.0868    0.1458 H   0  0  0  0  0  0  0  0  0  0  0  0
   -3.5438   -1.8770    0.5085 H   0  0  0  0  0  0  0  0  0  0  0  0
   -3.9286   -4.2704    0.8750 H   0  0  0  0  0  0  0  0  0  0  0  0
   -2.9080   -6.5212    1.2004 H   0  0  0  0  0  0  0  0  0  0  0  0
   -2.6816   -6.7682   -0.5489 H   0  0  0  0  0  0  0  0  0  0  0  0
   -1.3010   -6.8806    0.5705 H   0  0  0  0  0  0  0  0  0  0  0  0
    0.0035   -5.1461   -0.6543 H   0  0  0  0  0  0  0  0  0  0  0  0
    0.3948   -2.7498   -1.0206 H   0  0  0  0  0  0  0  0  0  0  0  0
  1  2  1  0
  2  3  1  0
  3  4  2  0
  3  5  1  0
  5  6  1  0
  6  7  1  0
  7  8  1  0
  8  9  2  0
  9 10  1  0
 10 11  2  0
 11 12  1  0
 12 13  1  0
 13 14  1  0
 13 15  1  0
 13 16  1  0
 12 17  2  0
  7 18  1  0
 18 19  1  0
 19 20  1  0
 20 21  1  0
 21 22  1  0
 22 23  2  0
 23 24  1  0
 24 25  2  0
 25 26  1  0
 26 27  2  0
 18 28  1  0
 28 29  1  0
 29 30  2  0
 30 31  1  0
 31 32  2  0
 32 33  1  0
 32 34  1  0
 34 35  2  0
 28  5  1  0
 35 29  1  0
 17  8  1  0
 27 22  1  0
  1 36  1  0
  1 37  1  0
  1 38  1  0
  2 39  1  0
  5 40  1  0
  6 41  1  0
  6 42  1  0
  7 43  1  0
  9 44  1  0
 10 45  1  0
 11 46  1  0
 17 47  1  0
 19 48  1  0
 19 49  1  0
 20 50  1  0
 20 51  1  0
 21 52  1  0
 21 53  1  0
 23 54  1  0
 24 55  1  0
 25 56  1  0
 26 57  1  0
 28 58  1  0
 30 59  1  0
 31 60  1  0
 33 61  1  0
 33 62  1  0
 33 63  1  0
 34 64  1  0
 35 65  1  0
M  END
>  <smiles>  (1) 
CNC(=O)C1CC(c2cccc(C(F)(F)F)c2)N(CCCc2ccccn2)C1c1ccc(C)cc1

>  <mol_id>  (1) 
run14a_mol_0

>  <run_id>  (1) 
run14a

>  <original_index>  (1) 
0

>  <Agent>  (1) 
19.1976

>  <Prior>  (1) 
36.9639

>  <Target>  (1) 
-36.9639

>  <Score>  (1) 
0.0

>  <SMILES>  (1) 
CNC(=O)C1CC(c2cccc(C(F)(F)F)c2)N(CCCc2ccccn2)C1c1ccc(C)cc1

>  <SMILES_state>  (1) 
1.0

>  <Input_Scaffold>  (1) 
c1ccc([*])cc1C1N([*])C(c2ccc([*])cc2)C(C(=O)N[*])C1

>  <R-groups>  (1) 
C(*)(F)(F)F|n1ccccc1CCC*|C*|*C

>  <Scaffold>  (1) 
c1ccc(C2CCC(c3ccccc3)N2CCCc2ccccn2)cc1

>  <DENV_Activity>  (1) 
0.0

>  <DENV_Activity (raw)>  (1) 
0.0

>  <Stereo_Centers>  (1) 
0.0

>  <Stereo_Centers (raw)>  (1) 
0.0

>  <QED>  (1) 
0.0

>  <QED (raw)>  (1) 
0.0

>  <SA>  (1) 
0.0

>  <SA (raw)>  (1) 
0.0

>  <MW>  (1) 
0.0

>  <MW (raw)>  (1) 
0.0

>  <Heavy_Atoms>  (1) 
0.0

>  <Heavy_Atoms (raw)>  (1) 
0.0

>  <LogP>  (1) 
0.0

>  <LogP (raw)>  (1) 
0.0

>  <TPSA>  (1) 
0.0

>  <TPSA (raw)>  (1) 
0.0

>  <HBA>  (1) 
0.0

>  <HBA (raw)>  (1) 
0.0

>  <HBD>  (1) 
0.0

>  <HBD (raw)>  (1) 
0.0

>  <Rotatable_Bonds>  (1) 
0.0

>  <Rotatable_Bonds (raw)>  (1) 
0.0

>  <Ring_Count>  (1) 
0.0

>  <Ring_Count (raw)>  (1) 
0.0

>  <Aromatic_Rings>  (1) 
0.0

>  <Aromatic_Rings (raw)>  (1) 
0.0

>  <Stability_Alerts>  (1) 
0.0

>  <Stability_Alerts (raw)>  (1) 
0.0

>  <matchting_patterns (Stability_Alerts)>  (1) 
['[F,Cl,Br,I][C,c][F,Cl,Br,I]']

>  <step>  (1) 
1.0

$$$$
run14a_mol_0
     RDKit          3D

 65 68  0  0  0  0  0  0  0  0999 V2000
   -5.7483   -1.6002   -0.2711 C   0  0  0  0  0  0  0  0  0  0  0  0
   -4.6594   -0.7305    0.0975 N   0  0  0  0  0  0  0  0  0  0  0  0
   -3.8680   -0.1520   -0.8741 C   0  0  0  0  0  0  0  0  0  0  0  0
   -4.1261   -0.2274   -2.0725 O   0  0  0  0  0  0  0  0  0  0  0  0
   -2.6910    0.6431   -0.3341 C   0  0  0  0  0  0  0  0  0  0  0  0
   -1.8273    1.3001   -1.4110 C   0  0  0  0  0  0  0  0  0  0  0  0
   -0.3911    1.2739   -0.8581 C   0  0  0  0  0  0  0  0  0  0  0  0
    0.2166    2.6627   -0.9554 C   0  0  0  0  0  0  0  0  0  0  0  0
    1.1252    2.9563   -1.9828 C   0  0  0  0  0  0  0  0  0  0  0  0
    1.6833    4.2298   -2.0974 C   0  0  0  0  0  0  0  0  0  0  0  0
    1.3351    5.2308   -1.1911 C   0  0  0  0  0  0  0  0  0  0  0  0
    0.4154    4.9720   -0.1651 C   0  0  0  0  0  0  0  0  0  0  0  0
    0.0521    6.0421    0.8331 C   0  0  0  0  0  0  0  0  0  0  0  0
    0.8373    6.0017    1.9453 F   0  0  0  0  0  0  0  0  0  0  0  0
    0.1776    7.3051    0.3354 F   0  0  0  0  0  0  0  0  0  0  0  0
   -1.2323    5.9476    1.2785 F   0  0  0  0  0  0  0  0  0  0  0  0
   -0.1353    3.6848   -0.0567 C   0  0  0  0  0  0  0  0  0  0  0  0
   -0.5168    0.7613    0.5203 N   0  0  0  0  0  0  0  0  0  0  0  0
    0.6980    0.1512    1.0835 C   0  0  0  0  0  0  0  0  0  0  0  0
    1.8124    1.1579    1.4061 C   0  0  0  0  0  0  0  0  0  0  0  0
    2.9458    0.5373    2.2307 C   0  0  0  0  0  0  0  0  0  0  0  0
    3.6684   -0.5635    1.4994 C   0  0  0  0  0  0  0  0  0  0  0  0
    4.6407   -0.2655    0.5481 C   0  0  0  0  0  0  0  0  0  0  0  0
    5.2524   -1.3117   -0.1363 C   0  0  0  0  0  0  0  0  0  0  0  0
    4.8748   -2.6197    0.1409 C   0  0  0  0  0  0  0  0  0  0  0  0
    3.8972   -2.8281    1.0982 C   0  0  0  0  0  0  0  0  0  0  0  0
    3.2899   -1.8336    1.7812 N   0  0  0  0  0  0  0  0  0  0  0  0
   -1.6984   -0.1389    0.5330 C   0  0  0  0  0  0  0  0  0  0  0  0
   -1.4385   -1.5981    0.1617 C   0  0  0  0  0  0  0  0  0  0  0  0
   -1.3060   -2.0577   -1.1556 C   0  0  0  0  0  0  0  0  0  0  0  0
   -1.0663   -3.4091   -1.4283 C   0  0  0  0  0  0  0  0  0  0  0  0
   -0.9332   -4.3346   -0.3903 C   0  0  0  0  0  0  0  0  0  0  0  0
   -0.7052   -5.7860   -0.6880 C   0  0  0  0  0  0  0  0  0  0  0  0
   -1.0694   -3.8919    0.9266 C   0  0  0  0  0  0  0  0  0  0  0  0
   -1.3138   -2.5428    1.1975 C   0  0  0  0  0  0  0  0  0  0  0  0
   -5.3362   -2.5611   -0.5907 H   0  0  0  0  0  0  0  0  0  0  0  0
   -6.3248   -1.1606   -1.0895 H   0  0  0  0  0  0  0  0  0  0  0  0
   -6.3895   -1.7435    0.6016 H   0  0  0  0  0  0  0  0  0  0  0  0
   -4.2961   -0.8142    1.0370 H   0  0  0  0  0  0  0  0  0  0  0  0
   -3.1203    1.4559    0.2721 H   0  0  0  0  0  0  0  0  0  0  0  0
   -2.2029    2.3116   -1.6106 H   0  0  0  0  0  0  0  0  0  0  0  0
   -1.8651    0.7677   -2.3677 H   0  0  0  0  0  0  0  0  0  0  0  0
    0.2017    0.5719   -1.4599 H   0  0  0  0  0  0  0  0  0  0  0  0
    1.4075    2.1893   -2.7013 H   0  0  0  0  0  0  0  0  0  0  0  0
    2.3907    4.4417   -2.8957 H   0  0  0  0  0  0  0  0  0  0  0  0
    1.7819    6.2189   -1.2904 H   0  0  0  0  0  0  0  0  0  0  0  0
   -0.8430    3.4694    0.7444 H   0  0  0  0  0  0  0  0  0  0  0  0
    0.4304   -0.3354    2.0299 H   0  0  0  0  0  0  0  0  0  0  0  0
    1.0868   -0.6237    0.4126 H   0  0  0  0  0  0  0  0  0  0  0  0
    2.2314    1.5704    0.4827 H   0  0  0  0  0  0  0  0  0  0  0  0
    1.3947    1.9928    1.9819 H   0  0  0  0  0  0  0  0  0  0  0  0
    3.6667    1.3169    2.5064 H   0  0  0  0  0  0  0  0  0  0  0  0
    2.5464    0.1447    3.1742 H   0  0  0  0  0  0  0  0  0  0  0  0
    4.9152    0.7629    0.3367 H   0  0  0  0  0  0  0  0  0  0  0  0
    6.0140   -1.1068   -0.8830 H   0  0  0  0  0  0  0  0  0  0  0  0
    5.3289   -3.4564   -0.3773 H   0  0  0  0  0  0  0  0  0  0  0  0
    3.5631   -3.8307    1.3485 H   0  0  0  0  0  0  0  0  0  0  0  0
   -2.0978   -0.1344    1.5569 H   0  0  0  0  0  0  0  0  0  0  0  0
   -1.3954   -1.3845   -2.0023 H   0  0  0  0  0  0  0  0  0  0  0  0
   -0.9837   -3.7312   -2.4643 H   0  0  0  0  0  0  0  0  0  0  0  0
   -1.6645   -6.3012   -0.7963 H   0  0  0  0  0  0  0  0  0  0  0  0
   -0.1303   -5.9098   -1.6118 H   0  0  0  0  0  0  0  0  0  0  0  0
   -0.1349   -6.2647    0.1151 H   0  0  0  0  0  0  0  0  0  0  0  0
   -0.9784   -4.5917    1.7542 H   0  0  0  0  0  0  0  0  0  0  0  0
   -1.3928   -2.2305    2.2374 H   0  0  0  0  0  0  0  0  0  0  0  0
  1  2  1  0
  2  3  1  0
  3  4  2  0
  3  5  1  0
  5  6  1  0
  6  7  1  0
  7  8  1  0
  8  9  2  0
  9 10  1  0
 10 11  2  0
 11 12  1  0
 12 13  1  0
 13 14  1  0
 13 15  1  0
 13 16  1  0
 12 17  2  0
  7 18  1  0
 18 19  1  0
 19 20  1  0
 20 21  1  0
 21 22  1  0
 22 23  2  0
 23 24  1  0
 24 25  2  0
 25 26  1  0
 26 27  2  0
 18 28  1  0
 28 29  1  0
 29 30  2  0
 30 31  1  0
 31 32  2  0
 32 33  1  0
 32 34  1  0
 34 35  2  0
 28  5  1  0
 35 29  1  0
 17  8  1  0
 27 22  1  0
  1 36  1  0
  1 37  1  0
  1 38  1  0
  2 39  1  0
  5 40  1  0
  6 41  1  0
  6 42  1  0
  7 43  1  0
  9 44  1  0
 10 45  1  0
 11 46  1  0
 17 47  1  0
 19 48  1  0
 19 49  1  0
 20 50  1  0
 20 51  1  0
 21 52  1  0
 21 53  1  0
 23 54  1  0
 24 55  1  0
 25 56  1  0
 26 57  1  0
 28 58  1  0
 30 59  1  0
 31 60  1  0
 33 61  1  0
 33 62  1  0
 33 63  1  0
 34 64  1  0
 35 65  1  0
M  END
>  <smiles>  (2) 
CNC(=O)C1CC(c2cccc(C(F)(F)F)c2)N(CCCc2ccccn2)C1c1ccc(C)cc1

>  <mol_id>  (2) 
run14a_mol_0

>  <run_id>  (2) 
run14a

>  <original_index>  (2) 
0

>  <Agent>  (2) 
19.1976

>  <Prior>  (2) 
36.9639

>  <Target>  (2) 
-36.9639

>  <Score>  (2) 
0.0

>  <SMILES>  (2) 
CNC(=O)C1CC(c2cccc(C(F)(F)F)c2)N(CCCc2ccccn2)C1c1ccc(C)cc1

>  <SMILES_state>  (2) 
1.0

>  <Input_Scaffold>  (2) 
c1ccc([*])cc1C1N([*])C(c2ccc([*])cc2)C(C(=O)N[*])C1

>  <R-groups>  (2) 
C(*)(F)(F)F|n1ccccc1CCC*|C*|*C

>  <Scaffold>  (2) 
c1ccc(C2CCC(c3ccccc3)N2CCCc2ccccn2)cc1

>  <DENV_Activity>  (2) 
0.0

>  <DENV_Activity (raw)>  (2) 
0.0

>  <Stereo_Centers>  (2) 
0.0

>  <Stereo_Centers (raw)>  (2) 
0.0

>  <QED>  (2) 
0.0

>  <QED (raw)>  (2) 
0.0

>  <SA>  (2) 
0.0

>  <SA (raw)>  (2) 
0.0

>  <MW>  (2) 
0.0

>  <MW (raw)>  (2) 
0.0

>  <Heavy_Atoms>  (2) 
0.0

>  <Heavy_Atoms (raw)>  (2) 
0.0

>  <LogP>  (2) 
0.0

>  <LogP (raw)>  (2) 
0.0

>  <TPSA>  (2) 
0.0

>  <TPSA (raw)>  (2) 
0.0

>  <HBA>  (2) 
0.0

>  <HBA (raw)>  (2) 
0.0

>  <HBD>  (2) 
0.0

>  <HBD (raw)>  (2) 
0.0

>  <Rotatable_Bonds>  (2) 
0.0

>  <Rotatable_Bonds (raw)>  (2) 
0.0

>  <Ring_Count>  (2) 
0.0

>  <Ring_Count (raw)>  (2) 
0.0

>  <Aromatic_Rings>  (2) 
0.0

>  <Aromatic_Rings (raw)>  (2) 
0.0

>  <Stability_Alerts>  (2) 
0.0

>  <Stability_Alerts (raw)>  (2) 
0.0

>  <matchting_patterns (Stability_Alerts)>  (2) 
['[F,Cl,Br,I][C,c][F,Cl,Br,I]']

>  <step>  (2) 
1.0

$$$$
run14a_mol_0
     RDKit          3D

 65 68  0  0  0  0  0  0  0  0999 V2000
   -3.9065   -2.9775   -3.6864 C   0  0  0  0  0  0  0  0  0  0  0  0
   -3.3943   -2.1463   -2.6268 N   0  0  0  0  0  0  0  0  0  0  0  0
   -2.6396   -1.0257   -2.8982 C   0  0  0  0  0  0  0  0  0  0  0  0
   -2.3025   -0.7078   -4.0344 O   0  0  0  0  0  0  0  0  0  0  0  0
   -2.2770   -0.2144   -1.6680 C   0  0  0  0  0  0  0  0  0  0  0  0
   -1.5609    1.0857   -2.0041 C   0  0  0  0  0  0  0  0  0  0  0  0
   -0.9014    1.4239   -0.6734 C   0  0  0  0  0  0  0  0  0  0  0  0
    0.0450    2.6106   -0.6252 C   0  0  0  0  0  0  0  0  0  0  0  0
    0.4317    3.3262   -1.7663 C   0  0  0  0  0  0  0  0  0  0  0  0
    1.3192    4.4004   -1.6694 C   0  0  0  0  0  0  0  0  0  0  0  0
    1.8386    4.7740   -0.4310 C   0  0  0  0  0  0  0  0  0  0  0  0
    1.4738    4.0794    0.7298 C   0  0  0  0  0  0  0  0  0  0  0  0
    2.0411    4.4868    2.0660 C   0  0  0  0  0  0  0  0  0  0  0  0
    1.8671    3.5601    3.0488 F   0  0  0  0  0  0  0  0  0  0  0  0
    3.3834    4.7271    2.0189 F   0  0  0  0  0  0  0  0  0  0  0  0
    1.4790    5.6360    2.5361 F   0  0  0  0  0  0  0  0  0  0  0  0
    0.5636    3.0161    0.6220 C   0  0  0  0  0  0  0  0  0  0  0  0
   -0.3788    0.1197   -0.1818 N   0  0  0  0  0  0  0  0  0  0  0  0
    1.0413   -0.1289   -0.4940 C   0  0  0  0  0  0  0  0  0  0  0  0
    1.6102   -1.3262    0.2856 C   0  0  0  0  0  0  0  0  0  0  0  0
    3.1279   -1.4707    0.1048 C   0  0  0  0  0  0  0  0  0  0  0  0
    3.9000   -0.3061    0.6754 C   0  0  0  0  0  0  0  0  0  0  0  0
    4.5850    0.5718   -0.1621 C   0  0  0  0  0  0  0  0  0  0  0  0
    5.2318    1.6695    0.3989 C   0  0  0  0  0  0  0  0  0  0  0  0
    5.1817    1.8602    1.7737 C   0  0  0  0  0  0  0  0  0  0  0  0
    4.4889    0.9358    2.5353 C   0  0  0  0  0  0  0  0  0  0  0  0
    3.8550   -0.1395    2.0188 N   0  0  0  0  0  0  0  0  0  0  0  0
   -1.2541   -0.9373   -0.7752 C   0  0  0  0  0  0  0  0  0  0  0  0
   -1.9186   -1.7859    0.2988 C   0  0  0  0  0  0  0  0  0  0  0  0
   -1.8838   -3.1859    0.2054 C   0  0  0  0  0  0  0  0  0  0  0  0
   -2.5156   -3.9841    1.1623 C   0  0  0  0  0  0  0  0  0  0  0  0
   -3.2026   -3.4005    2.2310 C   0  0  0  0  0  0  0  0  0  0  0  0
   -3.8438   -4.2566    3.2823 C   0  0  0  0  0  0  0  0  0  0  0  0
   -3.2231   -2.0068    2.3427 C   0  0  0  0  0  0  0  0  0  0  0  0
   -2.5923   -1.2086    1.3850 C   0  0  0  0  0  0  0  0  0  0  0  0
   -3.1490   -3.1142   -4.4629 H   0  0  0  0  0  0  0  0  0  0  0  0
   -4.7863   -2.4922   -4.1168 H   0  0  0  0  0  0  0  0  0  0  0  0
   -4.1866   -3.9452   -3.2641 H   0  0  0  0  0  0  0  0  0  0  0  0
   -3.7950   -2.2537   -1.7009 H   0  0  0  0  0  0  0  0  0  0  0  0
   -3.2051    0.0234   -1.1304 H   0  0  0  0  0  0  0  0  0  0  0  0
   -2.2626    1.8598   -2.3338 H   0  0  0  0  0  0  0  0  0  0  0  0
   -0.8196    0.9393   -2.7997 H   0  0  0  0  0  0  0  0  0  0  0  0
   -1.7187    1.7012    0.0106 H   0  0  0  0  0  0  0  0  0  0  0  0
    0.0553    3.0609   -2.7511 H   0  0  0  0  0  0  0  0  0  0  0  0
    1.6089    4.9441   -2.5657 H   0  0  0  0  0  0  0  0  0  0  0  0
    2.5347    5.6092   -0.3730 H   0  0  0  0  0  0  0  0  0  0  0  0
    0.2772    2.4614    1.5176 H   0  0  0  0  0  0  0  0  0  0  0  0
    1.1954   -0.2658   -1.5722 H   0  0  0  0  0  0  0  0  0  0  0  0
    1.6373    0.7374   -0.2044 H   0  0  0  0  0  0  0  0  0  0  0  0
    1.1391   -2.2554   -0.0536 H   0  0  0  0  0  0  0  0  0  0  0  0
    1.3734   -1.2183    1.3520 H   0  0  0  0  0  0  0  0  0  0  0  0
    3.4644   -2.3815    0.6154 H   0  0  0  0  0  0  0  0  0  0  0  0
    3.3643   -1.6057   -0.9576 H   0  0  0  0  0  0  0  0  0  0  0  0
    4.6031    0.4205   -1.2362 H   0  0  0  0  0  0  0  0  0  0  0  0
    5.7632    2.3749   -0.2331 H   0  0  0  0  0  0  0  0  0  0  0  0
    5.6657    2.7103    2.2408 H   0  0  0  0  0  0  0  0  0  0  0  0
    4.4173    1.0401    3.6140 H   0  0  0  0  0  0  0  0  0  0  0  0
   -0.6550   -1.6012   -1.4145 H   0  0  0  0  0  0  0  0  0  0  0  0
   -1.3577   -3.6695   -0.6155 H   0  0  0  0  0  0  0  0  0  0  0  0
   -2.4611   -5.0667    1.0712 H   0  0  0  0  0  0  0  0  0  0  0  0
   -4.7142   -3.7544    3.7174 H   0  0  0  0  0  0  0  0  0  0  0  0
   -3.1250   -4.4729    4.0786 H   0  0  0  0  0  0  0  0  0  0  0  0
   -4.1947   -5.2020    2.8554 H   0  0  0  0  0  0  0  0  0  0  0  0
   -3.7228   -1.5303    3.1832 H   0  0  0  0  0  0  0  0  0  0  0  0
   -2.6152   -0.1278    1.5039 H   0  0  0  0  0  0  0  0  0  0  0  0
  1  2  1  0
  2  3  1  0
  3  4  2  0
  3  5  1  0
  5  6  1  0
  6  7  1  0
  7  8  1  0
  8  9  2  0
  9 10  1  0
 10 11  2  0
 11 12  1  0
 12 13  1  0
 13 14  1  0
 13 15  1  0
 13 16  1  0
 12 17  2  0
  7 18  1  0
 18 19  1  0
 19 20  1  0
 20 21  1  0
 21 22  1  0
 22 23  2  0
 23 24  1  0
 24 25  2  0
 25 26  1  0
 26 27  2  0
 18 28  1  0
 28 29  1  0
 29 30  2  0
 30 31  1  0
 31 32  2  0
 32 33  1  0
 32 34  1  0
 34 35  2  0
 28  5  1  0
 35 29  1  0
 17  8  1  0
 27 22  1  0
  1 36  1  0
  1 37  1  0
  1 38  1  0
  2 39  1  0
  5 40  1  0
  6 41  1  0
  6 42  1  0
  7 43  1  0
  9 44  1  0
 10 45  1  0
 11 46  1  0
 17 47  1  0
 19 48  1  0
 19 49  1  0
 20 50  1  0
 20 51  1  0
 21 52  1  0
 21 53  1  0
 23 54  1  0
 24 55  1  0
 25 56  1  0
 26 57  1  0
 28 58  1  0
 30 59  1  0
 31 60  1  0
 33 61  1  0
 33 62  1  0
 33 63  1  0
 34 64  1  0
 35 65  1  0
M  END
>  <smiles>  (3) 
CNC(=O)C1CC(c2cccc(C(F)(F)F)c2)N(CCCc2ccccn2)C1c1ccc(C)cc1

>  <mol_id>  (3) 
run14a_mol_0

>  <run_id>  (3) 
run14a

>  <original_index>  (3) 
0

>  <Agent>  (3) 
19.1976

>  <Prior>  (3) 
36.9639

>  <Target>  (3) 
-36.9639

>  <Score>  (3) 
0.0

>  <SMILES>  (3) 
CNC(=O)C1CC(c2cccc(C(F)(F)F)c2)N(CCCc2ccccn2)C1c1ccc(C)cc1

>  <SMILES_state>  (3) 
1.0

>  <Input_Scaffold>  (3) 
c1ccc([*])cc1C1N([*])C(c2ccc([*])cc2)C(C(=O)N[*])C1

>  <R-groups>  (3) 
C(*)(F)(F)F|n1ccccc1CCC*|C*|*C

>  <Scaffold>  (3) 
c1ccc(C2CCC(c3ccccc3)N2CCCc2ccccn2)cc1

>  <DENV_Activity>  (3) 
0.0

>  <DENV_Activity (raw)>  (3) 
0.0

>  <Stereo_Centers>  (3) 
0.0

>  <Stereo_Centers (raw)>  (3) 
0.0

>  <QED>  (3) 
0.0

>  <QED (raw)>  (3) 
0.0

>  <SA>  (3) 
0.0

>  <SA (raw)>  (3) 
0.0

>  <MW>  (3) 
0.0

>  <MW (raw)>  (3) 
0.0

>  <Heavy_Atoms>  (3) 
0.0

>  <Heavy_Atoms (raw)>  (3) 
0.0

>  <LogP>  (3) 
0.0

>  <LogP (raw)>  (3) 
0.0

>  <TPSA>  (3) 
0.0

>  <TPSA (raw)>  (3) 
0.0

>  <HBA>  (3) 
0.0

>  <HBA (raw)>  (3) 
0.0

>  <HBD>  (3) 
0.0

>  <HBD (raw)>  (3) 
0.0

>  <Rotatable_Bonds>  (3) 
0.0

>  <Rotatable_Bonds (raw)>  (3) 
0.0

>  <Ring_Count>  (3) 
0.0

>  <Ring_Count (raw)>  (3) 
0.0

>  <Aromatic_Rings>  (3) 
0.0

>  <Aromatic_Rings (raw)>  (3) 
0.0

>  <Stability_Alerts>  (3) 
0.0

>  <Stability_Alerts (raw)>  (3) 
0.0

>  <matchting_patterns (Stability_Alerts)>  (3) 
['[F,Cl,Br,I][C,c][F,Cl,Br,I]']

>  <step>  (3) 
1.0

$$$$
run14a_mol_0
     RDKit          3D

 65 68  0  0  0  0  0  0  0  0999 V2000
   -2.9466   -1.4356   -4.0136 C   0  0  0  0  0  0  0  0  0  0  0  0
   -2.6977   -1.0372   -2.6527 N   0  0  0  0  0  0  0  0  0  0  0  0
   -3.6254   -1.2589   -1.6596 C   0  0  0  0  0  0  0  0  0  0  0  0
   -4.7490   -1.7042   -1.8796 O   0  0  0  0  0  0  0  0  0  0  0  0
   -3.1773   -0.8896   -0.2497 C   0  0  0  0  0  0  0  0  0  0  0  0
   -2.8816    0.6082   -0.1261 C   0  0  0  0  0  0  0  0  0  0  0  0
   -1.3741    0.7135    0.1633 C   0  0  0  0  0  0  0  0  0  0  0  0
   -0.7716    1.9359   -0.5033 C   0  0  0  0  0  0  0  0  0  0  0  0
   -0.7024    2.0683   -1.8981 C   0  0  0  0  0  0  0  0  0  0  0  0
   -0.1292    3.1979   -2.4836 C   0  0  0  0  0  0  0  0  0  0  0  0
    0.3833    4.2172   -1.6839 C   0  0  0  0  0  0  0  0  0  0  0  0
    0.3185    4.1220   -0.2877 C   0  0  0  0  0  0  0  0  0  0  0  0
    0.9028    5.2034    0.5861 C   0  0  0  0  0  0  0  0  0  0  0  0
    0.1978    5.3967    1.7362 F   0  0  0  0  0  0  0  0  0  0  0  0
    2.1772    4.9184    0.9747 F   0  0  0  0  0  0  0  0  0  0  0  0
    0.9606    6.4205   -0.0228 F   0  0  0  0  0  0  0  0  0  0  0  0
   -0.2596    2.9780    0.2903 C   0  0  0  0  0  0  0  0  0  0  0  0
   -0.8357   -0.5897   -0.2741 N   0  0  0  0  0  0  0  0  0  0  0  0
    0.5104   -0.9214    0.2154 C   0  0  0  0  0  0  0  0  0  0  0  0
    1.6384   -0.2180   -0.5468 C   0  0  0  0  0  0  0  0  0  0  0  0
    3.0077   -0.7368   -0.1004 C   0  0  0  0  0  0  0  0  0  0  0  0
    4.1227   -0.0630   -0.8581 C   0  0  0  0  0  0  0  0  0  0  0  0
    4.5645    1.2057   -0.4885 C   0  0  0  0  0  0  0  0  0  0  0  0
    5.5814    1.8044   -1.2264 C   0  0  0  0  0  0  0  0  0  0  0  0
    6.1258    1.1262   -2.3096 C   0  0  0  0  0  0  0  0  0  0  0  0
    5.6258   -0.1287   -2.6121 C   0  0  0  0  0  0  0  0  0  0  0  0
    4.6391   -0.7344   -1.9156 N   0  0  0  0  0  0  0  0  0  0  0  0
   -1.8664   -1.6007    0.1104 C   0  0  0  0  0  0  0  0  0  0  0  0
   -1.8096   -2.1134    1.5515 C   0  0  0  0  0  0  0  0  0  0  0  0
   -1.1976   -3.3550    1.8021 C   0  0  0  0  0  0  0  0  0  0  0  0
   -1.1051   -3.8710    3.0977 C   0  0  0  0  0  0  0  0  0  0  0  0
   -1.6161   -3.1552    4.1822 C   0  0  0  0  0  0  0  0  0  0  0  0
   -1.5512   -3.7226    5.5687 C   0  0  0  0  0  0  0  0  0  0  0  0
   -2.2439   -1.9297    3.9449 C   0  0  0  0  0  0  0  0  0  0  0  0
   -2.3354   -1.4135    2.6476 C   0  0  0  0  0  0  0  0  0  0  0  0
   -2.8009   -2.5160   -4.0940 H   0  0  0  0  0  0  0  0  0  0  0  0
   -2.2375   -0.9166   -4.6623 H   0  0  0  0  0  0  0  0  0  0  0  0
   -3.9707   -1.1838   -4.3016 H   0  0  0  0  0  0  0  0  0  0  0  0
   -1.7354   -0.8810   -2.3602 H   0  0  0  0  0  0  0  0  0  0  0  0
   -4.0015   -1.1704    0.4178 H   0  0  0  0  0  0  0  0  0  0  0  0
   -3.1944    1.1546   -1.0236 H   0  0  0  0  0  0  0  0  0  0  0  0
   -3.4460    1.0392    0.7101 H   0  0  0  0  0  0  0  0  0  0  0  0
   -1.2413    0.8098    1.2490 H   0  0  0  0  0  0  0  0  0  0  0  0
   -1.0858    1.2845   -2.5448 H   0  0  0  0  0  0  0  0  0  0  0  0
   -0.0771    3.2775   -3.5670 H   0  0  0  0  0  0  0  0  0  0  0  0
    0.8359    5.0879   -2.1560 H   0  0  0  0  0  0  0  0  0  0  0  0
   -0.2987    2.8981    1.3770 H   0  0  0  0  0  0  0  0  0  0  0  0
    0.6751   -1.9972    0.0738 H   0  0  0  0  0  0  0  0  0  0  0  0
    0.6066   -0.7188    1.2895 H   0  0  0  0  0  0  0  0  0  0  0  0
    1.6078    0.8603   -0.3733 H   0  0  0  0  0  0  0  0  0  0  0  0
    1.5155   -0.3781   -1.6257 H   0  0  0  0  0  0  0  0  0  0  0  0
    3.1487   -0.5757    0.9755 H   0  0  0  0  0  0  0  0  0  0  0  0
    3.0690   -1.8198   -0.2645 H   0  0  0  0  0  0  0  0  0  0  0  0
    4.1242    1.7248    0.3568 H   0  0  0  0  0  0  0  0  0  0  0  0
    5.9434    2.7927   -0.9582 H   0  0  0  0  0  0  0  0  0  0  0  0
    6.9188    1.5644   -2.9045 H   0  0  0  0  0  0  0  0  0  0  0  0
    6.0165   -0.6992   -3.4497 H   0  0  0  0  0  0  0  0  0  0  0  0
   -1.7362   -2.4747   -0.5426 H   0  0  0  0  0  0  0  0  0  0  0  0
   -0.7841   -3.9384    0.9810 H   0  0  0  0  0  0  0  0  0  0  0  0
   -0.6314   -4.8382    3.2517 H   0  0  0  0  0  0  0  0  0  0  0  0
   -0.6610   -4.3481    5.6936 H   0  0  0  0  0  0  0  0  0  0  0  0
   -2.4404   -4.3288    5.7671 H   0  0  0  0  0  0  0  0  0  0  0  0
   -1.4933   -2.9236    6.3154 H   0  0  0  0  0  0  0  0  0  0  0  0
   -2.6713   -1.3654    4.7712 H   0  0  0  0  0  0  0  0  0  0  0  0
   -2.8348   -0.4580    2.5197 H   0  0  0  0  0  0  0  0  0  0  0  0
  1  2  1  0
  2  3  1  0
  3  4  2  0
  3  5  1  0
  5  6  1  0
  6  7  1  0
  7  8  1  0
  8  9  2  0
  9 10  1  0
 10 11  2  0
 11 12  1  0
 12 13  1  0
 13 14  1  0
 13 15  1  0
 13 16  1  0
 12 17  2  0
  7 18  1  0
 18 19  1  0
 19 20  1  0
 20 21  1  0
 21 22  1  0
 22 23  2  0
 23 24  1  0
 24 25  2  0
 25 26  1  0
 26 27  2  0
 18 28  1  0
 28 29  1  0
 29 30  2  0
 30 31  1  0
 31 32  2  0
 32 33  1  0
 32 34  1  0
 34 35  2  0
 28  5  1  0
 35 29  1  0
 17  8  1  0
 27 22  1  0
  1 36  1  0
  1 37  1  0
  1 38  1  0
  2 39  1  0
  5 40  1  0
  6 41  1  0
  6 42  1  0
  7 43  1  0
  9 44  1  0
 10 45  1  0
 11 46  1  0
 17 47  1  0
 19 48  1  0
 19 49  1  0
 20 50  1  0
 20 51  1  0
 21 52  1  0
 21 53  1  0
 23 54  1  0
 24 55  1  0
 25 56  1  0
 26 57  1  0
 28 58  1  0
 30 59  1  0
 31 60  1  0
 33 61  1  0
 33 62  1  0
 33 63  1  0
 34 64  1  0
 35 65  1  0
M  END
>  <smiles>  (4) 
CNC(=O)C1CC(c2cccc(C(F)(F)F)c2)N(CCCc2ccccn2)C1c1ccc(C)cc1

>  <mol_id>  (4) 
run14a_mol_0

>  <run_id>  (4) 
run14a

>  <original_index>  (4) 
0

>  <Agent>  (4) 
19.1976

>  <Prior>  (4) 
36.9639

>  <Target>  (4) 
-36.9639

>  <Score>  (4) 
0.0

>  <SMILES>  (4) 
CNC(=O)C1CC(c2cccc(C(F)(F)F)c2)N(CCCc2ccccn2)C1c1ccc(C)cc1

>  <SMILES_state>  (4) 
1.0

>  <Input_Scaffold>  (4) 
c1ccc([*])cc1C1N([*])C(c2ccc([*])cc2)C(C(=O)N[*])C1

>  <R-groups>  (4) 
C(*)(F)(F)F|n1ccccc1CCC*|C*|*C

>  <Scaffold>  (4) 
c1ccc(C2CCC(c3ccccc3)N2CCCc2ccccn2)cc1

>  <DENV_Activity>  (4) 
0.0

>  <DENV_Activity (raw)>  (4) 
0.0

>  <Stereo_Centers>  (4) 
0.0

>  <Stereo_Centers (raw)>  (4) 
0.0

>  <QED>  (4) 
0.0

>  <QED (raw)>  (4) 
0.0

>  <SA>  (4) 
0.0

>  <SA (raw)>  (4) 
0.0

>  <MW>  (4) 
0.0

>  <MW (raw)>  (4) 
0.0

>  <Heavy_Atoms>  (4) 
0.0

>  <Heavy_Atoms (raw)>  (4) 
0.0

>  <LogP>  (4) 
0.0

>  <LogP (raw)>  (4) 
0.0

>  <TPSA>  (4) 
0.0

>  <TPSA (raw)>  (4) 
0.0

>  <HBA>  (4) 
0.0

>  <HBA (raw)>  (4) 
0.0

>  <HBD>  (4) 
0.0

>  <HBD (raw)>  (4) 
0.0

>  <Rotatable_Bonds>  (4) 
0.0

>  <Rotatable_Bonds (raw)>  (4) 
0.0

>  <Ring_Count>  (4) 
0.0

>  <Ring_Count (raw)>  (4) 
0.0

>  <Aromatic_Rings>  (4) 
0.0

>  <Aromatic_Rings (raw)>  (4) 
0.0

>  <Stability_Alerts>  (4) 
0.0

>  <Stability_Alerts (raw)>  (4) 
0.0

>  <matchting_patterns (Stability_Alerts)>  (4) 
['[F,Cl,Br,I][C,c][F,Cl,Br,I]']

>  <step>  (4) 
1.0

$$$$
run14a_mol_0
     RDKit          3D

 65 68  0  0  0  0  0  0  0  0999 V2000
   -3.5977   -1.1782   -4.4570 C   0  0  0  0  0  0  0  0  0  0  0  0
   -3.1765   -1.2849   -3.0827 N   0  0  0  0  0  0  0  0  0  0  0  0
   -2.2824   -0.3795   -2.5429 C   0  0  0  0  0  0  0  0  0  0  0  0
   -1.7663    0.5149   -3.2047 O   0  0  0  0  0  0  0  0  0  0  0  0
   -2.0454   -0.5792   -1.0540 C   0  0  0  0  0  0  0  0  0  0  0  0
   -1.5106   -1.9706   -0.7263 C   0  0  0  0  0  0  0  0  0  0  0  0
   -0.6392   -1.7528    0.5099 C   0  0  0  0  0  0  0  0  0  0  0  0
    0.3255   -2.9074    0.7030 C   0  0  0  0  0  0  0  0  0  0  0  0
    1.4248   -3.0989   -0.1489 C   0  0  0  0  0  0  0  0  0  0  0  0
    2.2948   -4.1732    0.0356 C   0  0  0  0  0  0  0  0  0  0  0  0
    2.0780   -5.0766    1.0744 C   0  0  0  0  0  0  0  0  0  0  0  0
    0.9913   -4.9102    1.9444 C   0  0  0  0  0  0  0  0  0  0  0  0
    0.7390   -5.8983    3.0560 C   0  0  0  0  0  0  0  0  0  0  0  0
    0.1771   -5.3274    4.1588 F   0  0  0  0  0  0  0  0  0  0  0  0
    1.8691   -6.5192    3.4951 F   0  0  0  0  0  0  0  0  0  0  0  0
   -0.1120   -6.8928    2.6791 F   0  0  0  0  0  0  0  0  0  0  0  0
    0.1169   -3.8275    1.7433 C   0  0  0  0  0  0  0  0  0  0  0  0
   -0.0087   -0.4681    0.2144 N   0  0  0  0  0  0  0  0  0  0  0  0
    0.8100    0.1158    1.2717 C   0  0  0  0  0  0  0  0  0  0  0  0
    1.7319    1.2388    0.7796 C   0  0  0  0  0  0  0  0  0  0  0  0
    2.7201    0.7591   -0.2863 C   0  0  0  0  0  0  0  0  0  0  0  0
    3.6088    1.8848   -0.7492 C   0  0  0  0  0  0  0  0  0  0  0  0
    3.2097    2.7099   -1.7986 C   0  0  0  0  0  0  0  0  0  0  0  0
    4.0443    3.7536   -2.1871 C   0  0  0  0  0  0  0  0  0  0  0  0
    5.2466    3.9479   -1.5189 C   0  0  0  0  0  0  0  0  0  0  0  0
    5.5646    3.0861   -0.4832 C   0  0  0  0  0  0  0  0  0  0  0  0
    4.7753    2.0652   -0.0833 N   0  0  0  0  0  0  0  0  0  0  0  0
   -0.9913    0.3932   -0.4824 C   0  0  0  0  0  0  0  0  0  0  0  0
   -1.6776    1.4882    0.3299 C   0  0  0  0  0  0  0  0  0  0  0  0
   -1.6782    2.8017   -0.1669 C   0  0  0  0  0  0  0  0  0  0  0  0
   -2.3135    3.8349    0.5271 C   0  0  0  0  0  0  0  0  0  0  0  0
   -2.9640    3.5805    1.7374 C   0  0  0  0  0  0  0  0  0  0  0  0
   -3.6717    4.6830    2.4671 C   0  0  0  0  0  0  0  0  0  0  0  0
   -2.9947    2.2712    2.2258 C   0  0  0  0  0  0  0  0  0  0  0  0
   -2.3597    1.2378    1.5304 C   0  0  0  0  0  0  0  0  0  0  0  0
   -4.3340   -0.3741   -4.5357 H   0  0  0  0  0  0  0  0  0  0  0  0
   -4.0508   -2.1261   -4.7562 H   0  0  0  0  0  0  0  0  0  0  0  0
   -2.7425   -0.9537   -5.1001 H   0  0  0  0  0  0  0  0  0  0  0  0
   -3.7354   -1.8494   -2.4565 H   0  0  0  0  0  0  0  0  0  0  0  0
   -3.0174   -0.4555   -0.5571 H   0  0  0  0  0  0  0  0  0  0  0  0
   -2.3235   -2.6777   -0.5232 H   0  0  0  0  0  0  0  0  0  0  0  0
   -0.9382   -2.3732   -1.5727 H   0  0  0  0  0  0  0  0  0  0  0  0
   -1.2794   -1.6566    1.3957 H   0  0  0  0  0  0  0  0  0  0  0  0
    1.6113   -2.3995   -0.9624 H   0  0  0  0  0  0  0  0  0  0  0  0
    3.1435   -4.3022   -0.6319 H   0  0  0  0  0  0  0  0  0  0  0  0
    2.7647   -5.9116    1.2058 H   0  0  0  0  0  0  0  0  0  0  0  0
   -0.7333   -3.7015    2.4135 H   0  0  0  0  0  0  0  0  0  0  0  0
    1.4587   -0.6546    1.7068 H   0  0  0  0  0  0  0  0  0  0  0  0
    0.1981    0.4795    2.1036 H   0  0  0  0  0  0  0  0  0  0  0  0
    1.1461    2.0823    0.3988 H   0  0  0  0  0  0  0  0  0  0  0  0
    2.2902    1.6279    1.6414 H   0  0  0  0  0  0  0  0  0  0  0  0
    3.3464   -0.0441    0.1214 H   0  0  0  0  0  0  0  0  0  0  0  0
    2.1979    0.3361   -1.1524 H   0  0  0  0  0  0  0  0  0  0  0  0
    2.2641    2.5450   -2.3058 H   0  0  0  0  0  0  0  0  0  0  0  0
    3.7565    4.4093   -3.0036 H   0  0  0  0  0  0  0  0  0  0  0  0
    5.9188    4.7514   -1.7966 H   0  0  0  0  0  0  0  0  0  0  0  0
    6.4916    3.1967    0.0717 H   0  0  0  0  0  0  0  0  0  0  0  0
   -0.4246    0.8773   -1.2863 H   0  0  0  0  0  0  0  0  0  0  0  0
   -1.1835    3.0311   -1.1096 H   0  0  0  0  0  0  0  0  0  0  0  0
   -2.2959    4.8404    0.1126 H   0  0  0  0  0  0  0  0  0  0  0  0
   -3.6725    4.4991    3.5466 H   0  0  0  0  0  0  0  0  0  0  0  0
   -3.1727    5.6438    2.3022 H   0  0  0  0  0  0  0  0  0  0  0  0
   -4.7068    4.7574    2.1199 H   0  0  0  0  0  0  0  0  0  0  0  0
   -3.5131    2.0457    3.1551 H   0  0  0  0  0  0  0  0  0  0  0  0
   -2.4027    0.2351    1.9444 H   0  0  0  0  0  0  0  0  0  0  0  0
  1  2  1  0
  2  3  1  0
  3  4  2  0
  3  5  1  0
  5  6  1  0
  6  7  1  0
  7  8  1  0
  8  9  2  0
  9 10  1  0
 10 11  2  0
 11 12  1  0
 12 13  1  0
 13 14  1  0
 13 15  1  0
 13 16  1  0
 12 17  2  0
  7 18  1  0
 18 19  1  0
 19 20  1  0
 20 21  1  0
 21 22  1  0
 22 23  2  0
 23 24  1  0
 24 25  2  0
 25 26  1  0
 26 27  2  0
 18 28  1  0
 28 29  1  0
 29 30  2  0
 30 31  1  0
 31 32  2  0
 32 33  1  0
 32 34  1  0
 34 35  2  0
 28  5  1  0
 35 29  1  0
 17  8  1  0
 27 22  1  0
  1 36  1  0
  1 37  1  0
  1 38  1  0
  2 39  1  0
  5 40  1  0
  6 41  1  0
  6 42  1  0
  7 43  1  0
  9 44  1  0
 10 45  1  0
 11 46  1  0
 17 47  1  0
 19 48  1  0
 19 49  1  0
 20 50  1  0
 20 51  1  0
 21 52  1  0
 21 53  1  0
 23 54  1  0
 24 55  1  0
 25 56  1  0
 26 57  1  0
 28 58  1  0
 30 59  1  0
 31 60  1  0
 33 61  1  0
 33 62  1  0
 33 63  1  0
 34 64  1  0
 35 65  1  0
M  END
>  <smiles>  (5) 
CNC(=O)C1CC(c2cccc(C(F)(F)F)c2)N(CCCc2ccccn2)C1c1ccc(C)cc1

>  <mol_id>  (5) 
run14a_mol_0

>  <run_id>  (5) 
run14a

>  <original_index>  (5) 
0

>  <Agent>  (5) 
19.1976

>  <Prior>  (5) 
36.9639

>  <Target>  (5) 
-36.9639

>  <Score>  (5) 
0.0

>  <SMILES>  (5) 
CNC(=O)C1CC(c2cccc(C(F)(F)F)c2)N(CCCc2ccccn2)C1c1ccc(C)cc1

>  <SMILES_state>  (5) 
1.0

>  <Input_Scaffold>  (5) 
c1ccc([*])cc1C1N([*])C(c2ccc([*])cc2)C(C(=O)N[*])C1

>  <R-groups>  (5) 
C(*)(F)(F)F|n1ccccc1CCC*|C*|*C

>  <Scaffold>  (5) 
c1ccc(C2CCC(c3ccccc3)N2CCCc2ccccn2)cc1

>  <DENV_Activity>  (5) 
0.0

>  <DENV_Activity (raw)>  (5) 
0.0

>  <Stereo_Centers>  (5) 
0.0

>  <Stereo_Centers (raw)>  (5) 
0.0

>  <QED>  (5) 
0.0

>  <QED (raw)>  (5) 
0.0

>  <SA>  (5) 
0.0

>  <SA (raw)>  (5) 
0.0

>  <MW>  (5) 
0.0

>  <MW (raw)>  (5) 
0.0

>  <Heavy_Atoms>  (5) 
0.0

>  <Heavy_Atoms (raw)>  (5) 
0.0

>  <LogP>  (5) 
0.0

>  <LogP (raw)>  (5) 
0.0

>  <TPSA>  (5) 
0.0

>  <TPSA (raw)>  (5) 
0.0

>  <HBA>  (5) 
0.0

>  <HBA (raw)>  (5) 
0.0

>  <HBD>  (5) 
0.0

>  <HBD (raw)>  (5) 
0.0

>  <Rotatable_Bonds>  (5) 
0.0

>  <Rotatable_Bonds (raw)>  (5) 
0.0

>  <Ring_Count>  (5) 
0.0

>  <Ring_Count (raw)>  (5) 
0.0

>  <Aromatic_Rings>  (5) 
0.0

>  <Aromatic_Rings (raw)>  (5) 
0.0

>  <Stability_Alerts>  (5) 
0.0

>  <Stability_Alerts (raw)>  (5) 
0.0

>  <matchting_patterns (Stability_Alerts)>  (5) 
['[F,Cl,Br,I][C,c][F,Cl,Br,I]']

>  <step>  (5) 
1.0

$$$$
run14a_mol_0
     RDKit          3D

 65 68  0  0  0  0  0  0  0  0999 V2000
   -3.7459   -0.3481    3.6165 C   0  0  0  0  0  0  0  0  0  0  0  0
   -3.7246   -0.5930    2.1960 N   0  0  0  0  0  0  0  0  0  0  0  0
   -3.1529    0.3317    1.3417 C   0  0  0  0  0  0  0  0  0  0  0  0
   -2.7852    1.4361    1.7324 O   0  0  0  0  0  0  0  0  0  0  0  0
   -3.0921   -0.1130   -0.1220 C   0  0  0  0  0  0  0  0  0  0  0  0
   -2.8429    1.0697   -1.0595 C   0  0  0  0  0  0  0  0  0  0  0  0
   -1.3449    1.0232   -1.4110 C   0  0  0  0  0  0  0  0  0  0  0  0
   -0.6414    2.3078   -1.0099 C   0  0  0  0  0  0  0  0  0  0  0  0
   -0.5078    3.3473   -1.9437 C   0  0  0  0  0  0  0  0  0  0  0  0
    0.1215    4.5432   -1.5962 C   0  0  0  0  0  0  0  0  0  0  0  0
    0.6221    4.7199   -0.3073 C   0  0  0  0  0  0  0  0  0  0  0  0
    0.5006    3.7011    0.6483 C   0  0  0  0  0  0  0  0  0  0  0  0
    1.0174    3.9046    2.0501 C   0  0  0  0  0  0  0  0  0  0  0  0
    1.2349    2.7461    2.7336 F   0  0  0  0  0  0  0  0  0  0  0  0
    0.1700    4.6432    2.8196 F   0  0  0  0  0  0  0  0  0  0  0  0
    2.2085    4.5717    2.0758 F   0  0  0  0  0  0  0  0  0  0  0  0
   -0.1399    2.5058    0.2868 C   0  0  0  0  0  0  0  0  0  0  0  0
   -0.7979   -0.1904   -0.7610 N   0  0  0  0  0  0  0  0  0  0  0  0
    0.2445   -0.8632   -1.5566 C   0  0  0  0  0  0  0  0  0  0  0  0
    1.5639   -0.0848   -1.6043 C   0  0  0  0  0  0  0  0  0  0  0  0
    2.6372   -0.8738   -2.3585 C   0  0  0  0  0  0  0  0  0  0  0  0
    3.9659   -0.1622   -2.3495 C   0  0  0  0  0  0  0  0  0  0  0  0
    4.1782    0.9576   -3.1509 C   0  0  0  0  0  0  0  0  0  0  0  0
    5.4133    1.5975   -3.0990 C   0  0  0  0  0  0  0  0  0  0  0  0
    6.3988    1.1067   -2.2520 C   0  0  0  0  0  0  0  0  0  0  0  0
    6.1060   -0.0103   -1.4890 C   0  0  0  0  0  0  0  0  0  0  0  0
    4.9180   -0.6528   -1.5202 N   0  0  0  0  0  0  0  0  0  0  0  0
   -1.9562   -1.0721   -0.5012 C   0  0  0  0  0  0  0  0  0  0  0  0
   -1.7026   -2.1973    0.4818 C   0  0  0  0  0  0  0  0  0  0  0  0
   -2.3943   -3.4106    0.3414 C   0  0  0  0  0  0  0  0  0  0  0  0
   -2.2077   -4.4492    1.2573 C   0  0  0  0  0  0  0  0  0  0  0  0
   -1.3190   -4.3012    2.3270 C   0  0  0  0  0  0  0  0  0  0  0  0
   -1.1396   -5.4044    3.3273 C   0  0  0  0  0  0  0  0  0  0  0  0
   -0.6374   -3.0900    2.4803 C   0  0  0  0  0  0  0  0  0  0  0  0
   -0.8235   -2.0514    1.5656 C   0  0  0  0  0  0  0  0  0  0  0  0
   -4.4031   -1.0836    4.0860 H   0  0  0  0  0  0  0  0  0  0  0  0
   -4.1115    0.6622    3.8192 H   0  0  0  0  0  0  0  0  0  0  0  0
   -2.7306   -0.4534    4.0083 H   0  0  0  0  0  0  0  0  0  0  0  0
   -3.7335   -1.5617    1.9038 H   0  0  0  0  0  0  0  0  0  0  0  0
   -4.0682   -0.5598   -0.3543 H   0  0  0  0  0  0  0  0  0  0  0  0
   -3.1723    2.0285   -0.6445 H   0  0  0  0  0  0  0  0  0  0  0  0
   -3.4210    0.9080   -1.9794 H   0  0  0  0  0  0  0  0  0  0  0  0
   -1.2717    0.9167   -2.5029 H   0  0  0  0  0  0  0  0  0  0  0  0
   -0.8977    3.2322   -2.9525 H   0  0  0  0  0  0  0  0  0  0  0  0
    0.2165    5.3403   -2.3292 H   0  0  0  0  0  0  0  0  0  0  0  0
    1.1063    5.6591   -0.0448 H   0  0  0  0  0  0  0  0  0  0  0  0
   -0.2534    1.7165    1.0307 H   0  0  0  0  0  0  0  0  0  0  0  0
   -0.1114   -1.0617   -2.5761 H   0  0  0  0  0  0  0  0  0  0  0  0
    0.4666   -1.8415   -1.1132 H   0  0  0  0  0  0  0  0  0  0  0  0
    1.4204    0.8800   -2.1017 H   0  0  0  0  0  0  0  0  0  0  0  0
    1.9077    0.1237   -0.5829 H   0  0  0  0  0  0  0  0  0  0  0  0
    2.3276   -1.0462   -3.3966 H   0  0  0  0  0  0  0  0  0  0  0  0
    2.7608   -1.8636   -1.9014 H   0  0  0  0  0  0  0  0  0  0  0  0
    3.3953    1.3328   -3.8015 H   0  0  0  0  0  0  0  0  0  0  0  0
    5.6024    2.4744   -3.7110 H   0  0  0  0  0  0  0  0  0  0  0  0
    7.3697    1.5836   -2.1850 H   0  0  0  0  0  0  0  0  0  0  0  0
    6.8406   -0.4319   -0.8091 H   0  0  0  0  0  0  0  0  0  0  0  0
   -2.2347   -1.5346   -1.4619 H   0  0  0  0  0  0  0  0  0  0  0  0
   -3.0867   -3.5583   -0.4848 H   0  0  0  0  0  0  0  0  0  0  0  0
   -2.7570   -5.3792    1.1271 H   0  0  0  0  0  0  0  0  0  0  0  0
   -1.2844   -6.3837    2.8592 H   0  0  0  0  0  0  0  0  0  0  0  0
   -1.8615   -5.2914    4.1419 H   0  0  0  0  0  0  0  0  0  0  0  0
   -0.1278   -5.3915    3.7459 H   0  0  0  0  0  0  0  0  0  0  0  0
    0.0483   -2.9438    3.3124 H   0  0  0  0  0  0  0  0  0  0  0  0
   -0.2806   -1.1176    1.7085 H   0  0  0  0  0  0  0  0  0  0  0  0
  1  2  1  0
  2  3  1  0
  3  4  2  0
  3  5  1  0
  5  6  1  0
  6  7  1  0
  7  8  1  0
  8  9  2  0
  9 10  1  0
 10 11  2  0
 11 12  1  0
 12 13  1  0
 13 14  1  0
 13 15  1  0
 13 16  1  0
 12 17  2  0
  7 18  1  0
 18 19  1  0
 19 20  1  0
 20 21  1  0
 21 22  1  0
 22 23  2  0
 23 24  1  0
 24 25  2  0
 25 26  1  0
 26 27  2  0
 18 28  1  0
 28 29  1  0
 29 30  2  0
 30 31  1  0
 31 32  2  0
 32 33  1  0
 32 34  1  0
 34 35  2  0
 28  5  1  0
 35 29  1  0
 17  8  1  0
 27 22  1  0
  1 36  1  0
  1 37  1  0
  1 38  1  0
  2 39  1  0
  5 40  1  0
  6 41  1  0
  6 42  1  0
  7 43  1  0
  9 44  1  0
 10 45  1  0
 11 46  1  0
 17 47  1  0
 19 48  1  0
 19 49  1  0
 20 50  1  0
 20 51  1  0
 21 52  1  0
 21 53  1  0
 23 54  1  0
 24 55  1  0
 25 56  1  0
 26 57  1  0
 28 58  1  0
 30 59  1  0
 31 60  1  0
 33 61  1  0
 33 62  1  0
 33 63  1  0
 34 64  1  0
 35 65  1  0
M  END
>  <smiles>  (6) 
CNC(=O)C1CC(c2cccc(C(F)(F)F)c2)N(CCCc2ccccn2)C1c1ccc(C)cc1

>  <mol_id>  (6) 
run14a_mol_0

>  <run_id>  (6) 
run14a

>  <original_index>  (6) 
0

>  <Agent>  (6) 
19.1976

>  <Prior>  (6) 
36.9639

>  <Target>  (6) 
-36.9639

>  <Score>  (6) 
0.0

>  <SMILES>  (6) 
CNC(=O)C1CC(c2cccc(C(F)(F)F)c2)N(CCCc2ccccn2)C1c1ccc(C)cc1

>  <SMILES_state>  (6) 
1.0

>  <Input_Scaffold>  (6) 
c1ccc([*])cc1C1N([*])C(c2ccc([*])cc2)C(C(=O)N[*])C1

>  <R-groups>  (6) 
C(*)(F)(F)F|n1ccccc1CCC*|C*|*C

>  <Scaffold>  (6) 
c1ccc(C2CCC(c3ccccc3)N2CCCc2ccccn2)cc1

>  <DENV_Activity>  (6) 
0.0

>  <DENV_Activity (raw)>  (6) 
0.0

>  <Stereo_Centers>  (6) 
0.0

>  <Stereo_Centers (raw)>  (6) 
0.0

>  <QED>  (6) 
0.0

>  <QED (raw)>  (6) 
0.0

>  <SA>  (6) 
0.0

>  <SA (raw)>  (6) 
0.0

>  <MW>  (6) 
0.0

>  <MW (raw)>  (6) 
0.0

>  <Heavy_Atoms>  (6) 
0.0

>  <Heavy_Atoms (raw)>  (6) 
0.0

>  <LogP>  (6) 
0.0

>  <LogP (raw)>  (6) 
0.0

>  <TPSA>  (6) 
0.0

>  <TPSA (raw)>  (6) 
0.0

>  <HBA>  (6) 
0.0

>  <HBA (raw)>  (6) 
0.0

>  <HBD>  (6) 
0.0

>  <HBD (raw)>  (6) 
0.0

>  <Rotatable_Bonds>  (6) 
0.0

>  <Rotatable_Bonds (raw)>  (6) 
0.0

>  <Ring_Count>  (6) 
0.0

>  <Ring_Count (raw)>  (6) 
0.0

>  <Aromatic_Rings>  (6) 
0.0

>  <Aromatic_Rings (raw)>  (6) 
0.0

>  <Stability_Alerts>  (6) 
0.0

>  <Stability_Alerts (raw)>  (6) 
0.0

>  <matchting_patterns (Stability_Alerts)>  (6) 
['[F,Cl,Br,I][C,c][F,Cl,Br,I]']

>  <step>  (6) 
1.0

$$$$
run14a_mol_0
     RDKit          3D

 65 68  0  0  0  0  0  0  0  0999 V2000
   -3.4311   -3.2557    3.4709 C   0  0  0  0  0  0  0  0  0  0  0  0
   -3.2426   -2.3889    2.3353 N   0  0  0  0  0  0  0  0  0  0  0  0
   -1.9849   -2.1439    1.8198 C   0  0  0  0  0  0  0  0  0  0  0  0
   -0.9739   -2.6834    2.2558 O   0  0  0  0  0  0  0  0  0  0  0  0
   -1.9888   -1.1451    0.6723 C   0  0  0  0  0  0  0  0  0  0  0  0
   -2.3376    0.2610    1.1519 C   0  0  0  0  0  0  0  0  0  0  0  0
   -1.0331    1.0434    1.0298 C   0  0  0  0  0  0  0  0  0  0  0  0
   -1.3053    2.5326    0.9242 C   0  0  0  0  0  0  0  0  0  0  0  0
   -1.7390    3.1187   -0.2749 C   0  0  0  0  0  0  0  0  0  0  0  0
   -1.9973    4.4872   -0.3492 C   0  0  0  0  0  0  0  0  0  0  0  0
   -1.8331    5.2908    0.7778 C   0  0  0  0  0  0  0  0  0  0  0  0
   -1.4146    4.7318    1.9939 C   0  0  0  0  0  0  0  0  0  0  0  0
   -1.2165    5.6029    3.2094 C   0  0  0  0  0  0  0  0  0  0  0  0
    0.0491    6.0962    3.2974 F   0  0  0  0  0  0  0  0  0  0  0  0
   -2.0427    6.6868    3.2321 F   0  0  0  0  0  0  0  0  0  0  0  0
   -1.4433    4.9436    4.3810 F   0  0  0  0  0  0  0  0  0  0  0  0
   -1.1481    3.3528    2.0534 C   0  0  0  0  0  0  0  0  0  0  0  0
   -0.3871    0.4487   -0.1617 N   0  0  0  0  0  0  0  0  0  0  0  0
    1.0490    0.8113   -0.1930 C   0  0  0  0  0  0  0  0  0  0  0  0
    1.7481    0.4374   -1.5071 C   0  0  0  0  0  0  0  0  0  0  0  0
    3.1694    1.0022   -1.5963 C   0  0  0  0  0  0  0  0  0  0  0  0
    4.1026    0.4025   -0.5762 C   0  0  0  0  0  0  0  0  0  0  0  0
    4.6487   -0.8635   -0.7736 C   0  0  0  0  0  0  0  0  0  0  0  0
    5.4819   -1.3957    0.2060 C   0  0  0  0  0  0  0  0  0  0  0  0
    5.7444   -0.6555    1.3518 C   0  0  0  0  0  0  0  0  0  0  0  0
    5.1576    0.5924    1.4714 C   0  0  0  0  0  0  0  0  0  0  0  0
    4.3436    1.1338    0.5388 N   0  0  0  0  0  0  0  0  0  0  0  0
   -0.6084   -1.0160   -0.0029 C   0  0  0  0  0  0  0  0  0  0  0  0
   -0.6201   -1.7887   -1.3133 C   0  0  0  0  0  0  0  0  0  0  0  0
   -1.1650   -1.2514   -2.4892 C   0  0  0  0  0  0  0  0  0  0  0  0
   -1.1874   -1.9961   -3.6709 C   0  0  0  0  0  0  0  0  0  0  0  0
   -0.6663   -3.2939   -3.7018 C   0  0  0  0  0  0  0  0  0  0  0  0
   -0.7213   -4.1052   -4.9618 C   0  0  0  0  0  0  0  0  0  0  0  0
   -0.1478   -3.8453   -2.5254 C   0  0  0  0  0  0  0  0  0  0  0  0
   -0.1235   -3.1004   -1.3439 C   0  0  0  0  0  0  0  0  0  0  0  0
   -2.7855   -4.1344    3.3909 H   0  0  0  0  0  0  0  0  0  0  0  0
   -3.1803   -2.7005    4.3784 H   0  0  0  0  0  0  0  0  0  0  0  0
   -4.4785   -3.5642    3.5033 H   0  0  0  0  0  0  0  0  0  0  0  0
   -4.0281   -1.8398    2.0103 H   0  0  0  0  0  0  0  0  0  0  0  0
   -2.7630   -1.4756   -0.0342 H   0  0  0  0  0  0  0  0  0  0  0  0
   -3.1174    0.6744    0.4984 H   0  0  0  0  0  0  0  0  0  0  0  0
   -2.7233    0.2977    2.1770 H   0  0  0  0  0  0  0  0  0  0  0  0
   -0.4183    0.8413    1.9196 H   0  0  0  0  0  0  0  0  0  0  0  0
   -1.8659    2.5043   -1.1646 H   0  0  0  0  0  0  0  0  0  0  0  0
   -2.3221    4.9261   -1.2894 H   0  0  0  0  0  0  0  0  0  0  0  0
   -2.0328    6.3587    0.7046 H   0  0  0  0  0  0  0  0  0  0  0  0
   -0.8108    2.9163    2.9937 H   0  0  0  0  0  0  0  0  0  0  0  0
    1.5742    0.3660    0.6612 H   0  0  0  0  0  0  0  0  0  0  0  0
    1.1430    1.8989   -0.0826 H   0  0  0  0  0  0  0  0  0  0  0  0
    1.1699    0.8363   -2.3498 H   0  0  0  0  0  0  0  0  0  0  0  0
    1.7914   -0.6498   -1.6244 H   0  0  0  0  0  0  0  0  0  0  0  0
    3.5740    0.8161   -2.5990 H   0  0  0  0  0  0  0  0  0  0  0  0
    3.1467    2.0923   -1.4742 H   0  0  0  0  0  0  0  0  0  0  0  0
    4.4263   -1.4312   -1.6715 H   0  0  0  0  0  0  0  0  0  0  0  0
    5.9193   -2.3813    0.0764 H   0  0  0  0  0  0  0  0  0  0  0  0
    6.3881   -1.0418    2.1336 H   0  0  0  0  0  0  0  0  0  0  0  0
    5.3299    1.2097    2.3482 H   0  0  0  0  0  0  0  0  0  0  0  0
    0.1856   -1.4207    0.6377 H   0  0  0  0  0  0  0  0  0  0  0  0
   -1.5697   -0.2416   -2.4896 H   0  0  0  0  0  0  0  0  0  0  0  0
   -1.6143   -1.5534   -4.5677 H   0  0  0  0  0  0  0  0  0  0  0  0
    0.1126   -4.8137   -5.0069 H   0  0  0  0  0  0  0  0  0  0  0  0
   -1.6620   -4.6624   -5.0074 H   0  0  0  0  0  0  0  0  0  0  0  0
   -0.6477   -3.4614   -5.8445 H   0  0  0  0  0  0  0  0  0  0  0  0
    0.2404   -4.8613   -2.5190 H   0  0  0  0  0  0  0  0  0  0  0  0
    0.2827   -3.5528   -0.4403 H   0  0  0  0  0  0  0  0  0  0  0  0
  1  2  1  0
  2  3  1  0
  3  4  2  0
  3  5  1  0
  5  6  1  0
  6  7  1  0
  7  8  1  0
  8  9  2  0
  9 10  1  0
 10 11  2  0
 11 12  1  0
 12 13  1  0
 13 14  1  0
 13 15  1  0
 13 16  1  0
 12 17  2  0
  7 18  1  0
 18 19  1  0
 19 20  1  0
 20 21  1  0
 21 22  1  0
 22 23  2  0
 23 24  1  0
 24 25  2  0
 25 26  1  0
 26 27  2  0
 18 28  1  0
 28 29  1  0
 29 30  2  0
 30 31  1  0
 31 32  2  0
 32 33  1  0
 32 34  1  0
 34 35  2  0
 28  5  1  0
 35 29  1  0
 17  8  1  0
 27 22  1  0
  1 36  1  0
  1 37  1  0
  1 38  1  0
  2 39  1  0
  5 40  1  0
  6 41  1  0
  6 42  1  0
  7 43  1  0
  9 44  1  0
 10 45  1  0
 11 46  1  0
 17 47  1  0
 19 48  1  0
 19 49  1  0
 20 50  1  0
 20 51  1  0
 21 52  1  0
 21 53  1  0
 23 54  1  0
 24 55  1  0
 25 56  1  0
 26 57  1  0
 28 58  1  0
 30 59  1  0
 31 60  1  0
 33 61  1  0
 33 62  1  0
 33 63  1  0
 34 64  1  0
 35 65  1  0
M  END
>  <smiles>  (7) 
CNC(=O)C1CC(c2cccc(C(F)(F)F)c2)N(CCCc2ccccn2)C1c1ccc(C)cc1

>  <mol_id>  (7) 
run14a_mol_0

>  <run_id>  (7) 
run14a

>  <original_index>  (7) 
0

>  <Agent>  (7) 
19.1976

>  <Prior>  (7) 
36.9639

>  <Target>  (7) 
-36.9639

>  <Score>  (7) 
0.0

>  <SMILES>  (7) 
CNC(=O)C1CC(c2cccc(C(F)(F)F)c2)N(CCCc2ccccn2)C1c1ccc(C)cc1

>  <SMILES_state>  (7) 
1.0

>  <Input_Scaffold>  (7) 
c1ccc([*])cc1C1N([*])C(c2ccc([*])cc2)C(C(=O)N[*])C1

>  <R-groups>  (7) 
C(*)(F)(F)F|n1ccccc1CCC*|C*|*C

>  <Scaffold>  (7) 
c1ccc(C2CCC(c3ccccc3)N2CCCc2ccccn2)cc1

>  <DENV_Activity>  (7) 
0.0

>  <DENV_Activity (raw)>  (7) 
0.0

>  <Stereo_Centers>  (7) 
0.0

>  <Stereo_Centers (raw)>  (7) 
0.0

>  <QED>  (7) 
0.0

>  <QED (raw)>  (7) 
0.0

>  <SA>  (7) 
0.0

>  <SA (raw)>  (7) 
0.0

>  <MW>  (7) 
0.0

>  <MW (raw)>  (7) 
0.0

>  <Heavy_Atoms>  (7) 
0.0

>  <Heavy_Atoms (raw)>  (7) 
0.0

>  <LogP>  (7) 
0.0

>  <LogP (raw)>  (7) 
0.0

>  <TPSA>  (7) 
0.0

>  <TPSA (raw)>  (7) 
0.0

>  <HBA>  (7) 
0.0

>  <HBA (raw)>  (7) 
0.0

>  <HBD>  (7) 
0.0

>  <HBD (raw)>  (7) 
0.0

>  <Rotatable_Bonds>  (7) 
0.0

>  <Rotatable_Bonds (raw)>  (7) 
0.0

>  <Ring_Count>  (7) 
0.0

>  <Ring_Count (raw)>  (7) 
0.0

>  <Aromatic_Rings>  (7) 
0.0

>  <Aromatic_Rings (raw)>  (7) 
0.0

>  <Stability_Alerts>  (7) 
0.0

>  <Stability_Alerts (raw)>  (7) 
0.0

>  <matchting_patterns (Stability_Alerts)>  (7) 
['[F,Cl,Br,I][C,c][F,Cl,Br,I]']

>  <step>  (7) 
1.0

$$$$
run14a_mol_0
     RDKit          3D

 65 68  0  0  0  0  0  0  0  0999 V2000
   -2.0491    2.6249   -4.2709 C   0  0  0  0  0  0  0  0  0  0  0  0
   -1.1843    1.8534   -3.4134 N   0  0  0  0  0  0  0  0  0  0  0  0
   -1.6322    1.3831   -2.1939 C   0  0  0  0  0  0  0  0  0  0  0  0
   -2.7848    1.5319   -1.8068 O   0  0  0  0  0  0  0  0  0  0  0  0
   -0.5490    0.6916   -1.3860 C   0  0  0  0  0  0  0  0  0  0  0  0
    0.4711    1.7101   -0.8605 C   0  0  0  0  0  0  0  0  0  0  0  0
    0.5938    1.4367    0.6461 C   0  0  0  0  0  0  0  0  0  0  0  0
   -0.1105    2.4156    1.5830 C   0  0  0  0  0  0  0  0  0  0  0  0
    0.3217    2.4787    2.9198 C   0  0  0  0  0  0  0  0  0  0  0  0
   -0.2804    3.3416    3.8357 C   0  0  0  0  0  0  0  0  0  0  0  0
   -1.3343    4.1577    3.4333 C   0  0  0  0  0  0  0  0  0  0  0  0
   -1.7963    4.1161    2.1108 C   0  0  0  0  0  0  0  0  0  0  0  0
   -2.9596    4.9752    1.6789 C   0  0  0  0  0  0  0  0  0  0  0  0
   -2.8838    5.3617    0.3739 F   0  0  0  0  0  0  0  0  0  0  0  0
   -4.1580    4.3459    1.8183 F   0  0  0  0  0  0  0  0  0  0  0  0
   -3.0619    6.1316    2.3955 F   0  0  0  0  0  0  0  0  0  0  0  0
   -1.1859    3.2339    1.1998 C   0  0  0  0  0  0  0  0  0  0  0  0
    0.0635    0.0626    0.8362 N   0  0  0  0  0  0  0  0  0  0  0  0
    1.1113   -0.9502    0.5842 C   0  0  0  0  0  0  0  0  0  0  0  0
    2.0775   -1.0602    1.7756 C   0  0  0  0  0  0  0  0  0  0  0  0
    3.1113   -2.1764    1.5817 C   0  0  0  0  0  0  0  0  0  0  0  0
    4.0753   -1.9597    0.4380 C   0  0  0  0  0  0  0  0  0  0  0  0
    4.6719   -3.0588   -0.1768 C   0  0  0  0  0  0  0  0  0  0  0  0
    5.5894   -2.8442   -1.2018 C   0  0  0  0  0  0  0  0  0  0  0  0
    5.8974   -1.5437   -1.5784 C   0  0  0  0  0  0  0  0  0  0  0  0
    5.2720   -0.5067   -0.9093 C   0  0  0  0  0  0  0  0  0  0  0  0
    4.3746   -0.6852    0.0851 N   0  0  0  0  0  0  0  0  0  0  0  0
   -1.0810   -0.0071   -0.1267 C   0  0  0  0  0  0  0  0  0  0  0  0
   -1.7128   -1.3868   -0.2626 C   0  0  0  0  0  0  0  0  0  0  0  0
   -1.8842   -2.0445   -1.4879 C   0  0  0  0  0  0  0  0  0  0  0  0
   -2.4864   -3.3068   -1.5468 C   0  0  0  0  0  0  0  0  0  0  0  0
   -2.9492   -3.9335   -0.3857 C   0  0  0  0  0  0  0  0  0  0  0  0
   -3.5675   -5.2977   -0.4505 C   0  0  0  0  0  0  0  0  0  0  0  0
   -2.7829   -3.2874    0.8412 C   0  0  0  0  0  0  0  0  0  0  0  0
   -2.1828   -2.0273    0.8990 C   0  0  0  0  0  0  0  0  0  0  0  0
   -2.1068    3.6449   -3.8818 H   0  0  0  0  0  0  0  0  0  0  0  0
   -3.0504    2.1866   -4.2946 H   0  0  0  0  0  0  0  0  0  0  0  0
   -1.6225    2.6354   -5.2764 H   0  0  0  0  0  0  0  0  0  0  0  0
   -0.1907    1.8604   -3.6040 H   0  0  0  0  0  0  0  0  0  0  0  0
   -0.0280   -0.0164   -2.0436 H   0  0  0  0  0  0  0  0  0  0  0  0
    1.4351    1.5038   -1.3452 H   0  0  0  0  0  0  0  0  0  0  0  0
    0.2257    2.7502   -1.0975 H   0  0  0  0  0  0  0  0  0  0  0  0
    1.6592    1.5116    0.8988 H   0  0  0  0  0  0  0  0  0  0  0  0
    1.1338    1.8357    3.2560 H   0  0  0  0  0  0  0  0  0  0  0  0
    0.0692    3.3688    4.8646 H   0  0  0  0  0  0  0  0  0  0  0  0
   -1.8016    4.8227    4.1578 H   0  0  0  0  0  0  0  0  0  0  0  0
   -1.5833    3.1894    0.1872 H   0  0  0  0  0  0  0  0  0  0  0  0
    0.6630   -1.9423    0.4651 H   0  0  0  0  0  0  0  0  0  0  0  0
    1.6537   -0.7451   -0.3453 H   0  0  0  0  0  0  0  0  0  0  0  0
    2.5937   -0.1121    1.9610 H   0  0  0  0  0  0  0  0  0  0  0  0
    1.5002   -1.2829    2.6824 H   0  0  0  0  0  0  0  0  0  0  0  0
    2.5807   -3.1260    1.4374 H   0  0  0  0  0  0  0  0  0  0  0  0
    3.7026   -2.2753    2.5002 H   0  0  0  0  0  0  0  0  0  0  0  0
    4.4310   -4.0700    0.1356 H   0  0  0  0  0  0  0  0  0  0  0  0
    6.0642   -3.6866   -1.6966 H   0  0  0  0  0  0  0  0  0  0  0  0
    6.6118   -1.3430   -2.3685 H   0  0  0  0  0  0  0  0  0  0  0  0
    5.4844    0.5286   -1.1595 H   0  0  0  0  0  0  0  0  0  0  0  0
   -1.8890    0.6044    0.2999 H   0  0  0  0  0  0  0  0  0  0  0  0
   -1.5657   -1.5937   -2.4226 H   0  0  0  0  0  0  0  0  0  0  0  0
   -2.6006   -3.7933   -2.5129 H   0  0  0  0  0  0  0  0  0  0  0  0
   -4.3028   -5.4322    0.3498 H   0  0  0  0  0  0  0  0  0  0  0  0
   -2.7930   -6.0646   -0.3518 H   0  0  0  0  0  0  0  0  0  0  0  0
   -4.0920   -5.4444   -1.4006 H   0  0  0  0  0  0  0  0  0  0  0  0
   -3.1240   -3.7541    1.7621 H   0  0  0  0  0  0  0  0  0  0  0  0
   -2.0716   -1.5363    1.8650 H   0  0  0  0  0  0  0  0  0  0  0  0
  1  2  1  0
  2  3  1  0
  3  4  2  0
  3  5  1  0
  5  6  1  0
  6  7  1  0
  7  8  1  0
  8  9  2  0
  9 10  1  0
 10 11  2  0
 11 12  1  0
 12 13  1  0
 13 14  1  0
 13 15  1  0
 13 16  1  0
 12 17  2  0
  7 18  1  0
 18 19  1  0
 19 20  1  0
 20 21  1  0
 21 22  1  0
 22 23  2  0
 23 24  1  0
 24 25  2  0
 25 26  1  0
 26 27  2  0
 18 28  1  0
 28 29  1  0
 29 30  2  0
 30 31  1  0
 31 32  2  0
 32 33  1  0
 32 34  1  0
 34 35  2  0
 28  5  1  0
 35 29  1  0
 17  8  1  0
 27 22  1  0
  1 36  1  0
  1 37  1  0
  1 38  1  0
  2 39  1  0
  5 40  1  0
  6 41  1  0
  6 42  1  0
  7 43  1  0
  9 44  1  0
 10 45  1  0
 11 46  1  0
 17 47  1  0
 19 48  1  0
 19 49  1  0
 20 50  1  0
 20 51  1  0
 21 52  1  0
 21 53  1  0
 23 54  1  0
 24 55  1  0
 25 56  1  0
 26 57  1  0
 28 58  1  0
 30 59  1  0
 31 60  1  0
 33 61  1  0
 33 62  1  0
 33 63  1  0
 34 64  1  0
 35 65  1  0
M  END
>  <smiles>  (8) 
CNC(=O)C1CC(c2cccc(C(F)(F)F)c2)N(CCCc2ccccn2)C1c1ccc(C)cc1

>  <mol_id>  (8) 
run14a_mol_0

>  <run_id>  (8) 
run14a

>  <original_index>  (8) 
0

>  <Agent>  (8) 
19.1976

>  <Prior>  (8) 
36.9639

>  <Target>  (8) 
-36.9639

>  <Score>  (8) 
0.0

>  <SMILES>  (8) 
CNC(=O)C1CC(c2cccc(C(F)(F)F)c2)N(CCCc2ccccn2)C1c1ccc(C)cc1

>  <SMILES_state>  (8) 
1.0

>  <Input_Scaffold>  (8) 
c1ccc([*])cc1C1N([*])C(c2ccc([*])cc2)C(C(=O)N[*])C1

>  <R-groups>  (8) 
C(*)(F)(F)F|n1ccccc1CCC*|C*|*C

>  <Scaffold>  (8) 
c1ccc(C2CCC(c3ccccc3)N2CCCc2ccccn2)cc1

>  <DENV_Activity>  (8) 
0.0

>  <DENV_Activity (raw)>  (8) 
0.0

>  <Stereo_Centers>  (8) 
0.0

>  <Stereo_Centers (raw)>  (8) 
0.0

>  <QED>  (8) 
0.0

>  <QED (raw)>  (8) 
0.0

>  <SA>  (8) 
0.0

>  <SA (raw)>  (8) 
0.0

>  <MW>  (8) 
0.0

>  <MW (raw)>  (8) 
0.0

>  <Heavy_Atoms>  (8) 
0.0

>  <Heavy_Atoms (raw)>  (8) 
0.0

>  <LogP>  (8) 
0.0

>  <LogP (raw)>  (8) 
0.0

>  <TPSA>  (8) 
0.0

>  <TPSA (raw)>  (8) 
0.0

>  <HBA>  (8) 
0.0

>  <HBA (raw)>  (8) 
0.0

>  <HBD>  (8) 
0.0

>  <HBD (raw)>  (8) 
0.0

>  <Rotatable_Bonds>  (8) 
0.0

>  <Rotatable_Bonds (raw)>  (8) 
0.0

>  <Ring_Count>  (8) 
0.0

>  <Ring_Count (raw)>  (8) 
0.0

>  <Aromatic_Rings>  (8) 
0.0

>  <Aromatic_Rings (raw)>  (8) 
0.0

>  <Stability_Alerts>  (8) 
0.0

>  <Stability_Alerts (raw)>  (8) 
0.0

>  <matchting_patterns (Stability_Alerts)>  (8) 
['[F,Cl,Br,I][C,c][F,Cl,Br,I]']

>  <step>  (8) 
1.0

$$$$
