run14a_mol_2
     RDKit          3D

 54 56  0  0  0  0  0  0  0  0999 V2000
    0.6882    5.9040   -0.6763 C   0  0  0  0  0  0  0  0  0  0  0  0
    0.6383    4.8032    0.3524 C   0  0  0  0  0  0  0  0  0  0  0  0
    0.5927    5.0584    1.5491 O   0  0  0  0  0  0  0  0  0  0  0  0
    0.5742    3.5438   -0.2165 N   0  0  0  0  0  0  0  0  0  0  0  0
    0.6771    2.3479    0.4782 C   0  0  0  0  0  0  0  0  0  0  0  0
    0.9463    2.2401    1.6679 O   0  0  0  0  0  0  0  0  0  0  0  0
    0.4446    1.1387   -0.4140 C   0  0  0  0  0  0  0  0  0  0  0  0
   -0.9960    1.0722   -0.9078 C   0  0  0  0  0  0  0  0  0  0  0  0
   -1.2502   -0.4207   -1.1531 C   0  0  0  0  0  0  0  0  0  0  0  0
   -2.7247   -0.7189   -0.9538 C   0  0  0  0  0  0  0  0  0  0  0  0
   -3.5342   -1.0012   -2.0631 C   0  0  0  0  0  0  0  0  0  0  0  0
   -4.8963   -1.2564   -1.9015 C   0  0  0  0  0  0  0  0  0  0  0  0
   -5.4692   -1.2265   -0.6307 C   0  0  0  0  0  0  0  0  0  0  0  0
   -4.6868   -0.9348    0.4908 C   0  0  0  0  0  0  0  0  0  0  0  0
   -5.2910   -0.9460    1.8637 C   0  0  0  0  0  0  0  0  0  0  0  0
   -3.3163   -0.6950    0.3223 C   0  0  0  0  0  0  0  0  0  0  0  0
   -0.3512   -1.1065   -0.2319 N   0  0  0  0  0  0  0  0  0  0  0  0
   -0.3919   -2.4789   -0.0812 C   0  0  0  0  0  0  0  0  0  0  0  0
    0.3564   -3.0784    1.0836 C   0  0  0  0  0  0  0  0  0  0  0  0
   -1.0077   -3.2089   -0.8588 O   0  0  0  0  0  0  0  0  0  0  0  0
    0.6476   -0.1918    0.3392 C   0  0  0  0  0  0  0  0  0  0  0  0
    2.0912   -0.6374    0.1513 C   0  0  0  0  0  0  0  0  0  0  0  0
    2.5387   -1.2444   -1.0333 C   0  0  0  0  0  0  0  0  0  0  0  0
    3.8766   -1.6181   -1.1820 C   0  0  0  0  0  0  0  0  0  0  0  0
    4.7955   -1.3925   -0.1524 C   0  0  0  0  0  0  0  0  0  0  0  0
    6.2380   -1.7658   -0.3244 C   0  0  0  0  0  0  0  0  0  0  0  0
    4.3616   -0.7621    1.0180 C   0  0  0  0  0  0  0  0  0  0  0  0
    3.0237   -0.3907    1.1695 C   0  0  0  0  0  0  0  0  0  0  0  0
    1.2386    6.7559   -0.2669 H   0  0  0  0  0  0  0  0  0  0  0  0
    1.2025    5.5741   -1.5836 H   0  0  0  0  0  0  0  0  0  0  0  0
   -0.3307    6.2110   -0.9259 H   0  0  0  0  0  0  0  0  0  0  0  0
    0.4970    3.4959   -1.2214 H   0  0  0  0  0  0  0  0  0  0  0  0
    1.1147    1.2159   -1.2812 H   0  0  0  0  0  0  0  0  0  0  0  0
   -1.6703    1.4922   -0.1499 H   0  0  0  0  0  0  0  0  0  0  0  0
   -1.1495    1.6584   -1.8211 H   0  0  0  0  0  0  0  0  0  0  0  0
   -0.9306   -0.6989   -2.1657 H   0  0  0  0  0  0  0  0  0  0  0  0
   -3.1058   -1.0446   -3.0617 H   0  0  0  0  0  0  0  0  0  0  0  0
   -5.5104   -1.4916   -2.7668 H   0  0  0  0  0  0  0  0  0  0  0  0
   -6.5295   -1.4413   -0.5201 H   0  0  0  0  0  0  0  0  0  0  0  0
   -6.3466   -0.6569    1.8289 H   0  0  0  0  0  0  0  0  0  0  0  0
   -5.2126   -1.9471    2.2987 H   0  0  0  0  0  0  0  0  0  0  0  0
   -4.7811   -0.2330    2.5200 H   0  0  0  0  0  0  0  0  0  0  0  0
   -2.7008   -0.4922    1.1970 H   0  0  0  0  0  0  0  0  0  0  0  0
   -0.1953   -3.9542    1.4397 H   0  0  0  0  0  0  0  0  0  0  0  0
    0.4303   -2.3828    1.9222 H   0  0  0  0  0  0  0  0  0  0  0  0
    1.3514   -3.3957    0.7644 H   0  0  0  0  0  0  0  0  0  0  0  0
    0.4080   -0.1177    1.4065 H   0  0  0  0  0  0  0  0  0  0  0  0
    1.8474   -1.4426   -1.8501 H   0  0  0  0  0  0  0  0  0  0  0  0
    4.1958   -2.0925   -2.1076 H   0  0  0  0  0  0  0  0  0  0  0  0
    6.6937   -2.0183    0.6388 H   0  0  0  0  0  0  0  0  0  0  0  0
    6.7897   -0.9320   -0.7694 H   0  0  0  0  0  0  0  0  0  0  0  0
    6.3399   -2.6434   -0.9714 H   0  0  0  0  0  0  0  0  0  0  0  0
    5.0632   -0.5544    1.8233 H   0  0  0  0  0  0  0  0  0  0  0  0
    2.7159    0.1028    2.0912 H   0  0  0  0  0  0  0  0  0  0  0  0
  1  2  1  0
  2  3  2  0
  2  4  1  0
  4  5  1  0
  5  6  2  0
  5  7  1  0
  7  8  1  0
  8  9  1  0
  9 10  1  0
 10 11  2  0
 11 12  1  0
 12 13  2  0
 13 14  1  0
 14 15  1  0
 14 16  2  0
  9 17  1  0
 17 18  1  0
 18 19  1  0
 18 20  2  0
 17 21  1  0
 21 22  1  0
 22 23  2  0
 23 24  1  0
 24 25  2  0
 25 26  1  0
 25 27  1  0
 27 28  2  0
 21  7  1  0
 28 22  1  0
 16 10  1  0
  1 29  1  0
  1 30  1  0
  1 31  1  0
  4 32  1  0
  7 33  1  0
  8 34  1  0
  8 35  1  0
  9 36  1  0
 11 37  1  0
 12 38  1  0
 13 39  1  0
 15 40  1  0
 15 41  1  0
 15 42  1  0
 16 43  1  0
 19 44  1  0
 19 45  1  0
 19 46  1  0
 21 47  1  0
 23 48  1  0
 24 49  1  0
 26 50  1  0
 26 51  1  0
 26 52  1  0
 27 53  1  0
 28 54  1  0
M  END
>  <smiles>  (1) 
CC(=O)NC(=O)C1CC(c2cccc(C)c2)N(C(C)=O)C1c1ccc(C)cc1

>  <mol_id>  (1) 
run14a_mol_2

>  <run_id>  (1) 
run14a

>  <original_index>  (1) 
2

>  <Agent>  (1) 
14.467

>  <Prior>  (1) 
12.326

>  <Target>  (1) 
109.8391

>  <Score>  (1) 
0.8144342

>  <SMILES>  (1) 
CC(=O)NC(=O)C1CC(c2cccc(C)c2)N(C(C)=O)C1c1ccc(C)cc1

>  <SMILES_state>  (1) 
1.0

>  <Input_Scaffold>  (1) 
c1ccc([*])cc1C1N([*])C(c2ccc([*])cc2)C(C(=O)N[*])C1

>  <R-groups>  (1) 
C*|CC(=O)*|C*|C(C)(=O)*

>  <Scaffold>  (1) 
c1ccc(C2CCC(c3ccccc3)N2)cc1

>  <DENV_Activity>  (1) 
0.9533081

>  <DENV_Activity (raw)>  (1) 
7.5263

>  <Stereo_Centers>  (1) 
1e-05

>  <Stereo_Centers (raw)>  (1) 
3.0

>  <QED>  (1) 
0.8870978

>  <QED (raw)>  (1) 
0.8871

>  <SA>  (1) 
0.3511029

>  <SA (raw)>  (1) 
3.4

>  <MW>  (1) 
0.9993863

>  <MW (raw)>  (1) 
378.472

>  <Heavy_Atoms>  (1) 
0.9281377

>  <Heavy_Atoms (raw)>  (1) 
28.0

>  <LogP>  (1) 
0.9982895

>  <LogP (raw)>  (1) 
3.6169

>  <TPSA>  (1) 
0.9999992

>  <TPSA (raw)>  (1) 
66.48

>  <HBA>  (1) 
0.97891

>  <HBA (raw)>  (1) 
3.0

>  <HBD>  (1) 
0.9467598

>  <HBD (raw)>  (1) 
1.0

>  <Rotatable_Bonds>  (1) 
0.8720069

>  <Rotatable_Bonds (raw)>  (1) 
3.0

>  <Ring_Count>  (1) 
0.8720069

>  <Ring_Count (raw)>  (1) 
3.0

>  <Aromatic_Rings>  (1) 
0.5

>  <Aromatic_Rings (raw)>  (1) 
2.0

>  <Stability_Alerts>  (1) 
1.0

>  <Stability_Alerts (raw)>  (1) 
1.0

>  <matchting_patterns (Stability_Alerts)>  (1) 
[]

>  <step>  (1) 
1.0

$$$$
run14a_mol_2
     RDKit          3D

 54 56  0  0  0  0  0  0  0  0999 V2000
   -0.8677    5.8101    0.3439 C   0  0  0  0  0  0  0  0  0  0  0  0
   -1.1836    4.7253    1.3420 C   0  0  0  0  0  0  0  0  0  0  0  0
   -1.7289    4.9867    2.4066 O   0  0  0  0  0  0  0  0  0  0  0  0
   -0.7097    3.4862    0.9503 N   0  0  0  0  0  0  0  0  0  0  0  0
   -1.0686    2.2775    1.5302 C   0  0  0  0  0  0  0  0  0  0  0  0
   -1.8179    2.1438    2.4884 O   0  0  0  0  0  0  0  0  0  0  0  0
   -0.3684    1.1001    0.8745 C   0  0  0  0  0  0  0  0  0  0  0  0
    1.0696    1.0021    1.3845 C   0  0  0  0  0  0  0  0  0  0  0  0
    1.4446   -0.4697    1.1948 C   0  0  0  0  0  0  0  0  0  0  0  0
    2.2958   -0.6888   -0.0418 C   0  0  0  0  0  0  0  0  0  0  0  0
    1.7772   -0.6065   -1.3408 C   0  0  0  0  0  0  0  0  0  0  0  0
    2.6010   -0.7905   -2.4523 C   0  0  0  0  0  0  0  0  0  0  0  0
    3.9580   -1.0569   -2.2830 C   0  0  0  0  0  0  0  0  0  0  0  0
    4.5024   -1.1506   -0.9996 C   0  0  0  0  0  0  0  0  0  0  0  0
    5.9695   -1.4045   -0.8133 C   0  0  0  0  0  0  0  0  0  0  0  0
    3.6700   -0.9502    0.1107 C   0  0  0  0  0  0  0  0  0  0  0  0
    0.1724   -1.1915    1.1879 N   0  0  0  0  0  0  0  0  0  0  0  0
    0.0312   -2.4882    1.6613 C   0  0  0  0  0  0  0  0  0  0  0  0
    1.2573   -3.3664    1.6290 C   0  0  0  0  0  0  0  0  0  0  0  0
   -1.0354   -2.9344    2.0808 O   0  0  0  0  0  0  0  0  0  0  0  0
   -0.9727   -0.2669    1.2424 C   0  0  0  0  0  0  0  0  0  0  0  0
   -2.1193   -0.6025    0.2945 C   0  0  0  0  0  0  0  0  0  0  0  0
   -1.9634   -1.4136   -0.8387 C   0  0  0  0  0  0  0  0  0  0  0  0
   -3.0353   -1.6577   -1.7033 C   0  0  0  0  0  0  0  0  0  0  0  0
   -4.2889   -1.0897   -1.4604 C   0  0  0  0  0  0  0  0  0  0  0  0
   -5.4485   -1.3877   -2.3630 C   0  0  0  0  0  0  0  0  0  0  0  0
   -4.4620   -0.3010   -0.3204 C   0  0  0  0  0  0  0  0  0  0  0  0
   -3.3905   -0.0591    0.5438 C   0  0  0  0  0  0  0  0  0  0  0  0
   -1.6273    6.5942    0.4102 H   0  0  0  0  0  0  0  0  0  0  0  0
    0.1155    6.2320    0.5678 H   0  0  0  0  0  0  0  0  0  0  0  0
   -0.8736    5.4197   -0.6778 H   0  0  0  0  0  0  0  0  0  0  0  0
   -0.1970    3.4466    0.0818 H   0  0  0  0  0  0  0  0  0  0  0  0
   -0.3691    1.2456   -0.2137 H   0  0  0  0  0  0  0  0  0  0  0  0
    1.7432    1.7010    0.8761 H   0  0  0  0  0  0  0  0  0  0  0  0
    1.1020    1.2494    2.4545 H   0  0  0  0  0  0  0  0  0  0  0  0
    2.0115   -0.7927    2.0768 H   0  0  0  0  0  0  0  0  0  0  0  0
    0.7255   -0.3994   -1.5093 H   0  0  0  0  0  0  0  0  0  0  0  0
    2.1830   -0.7269   -3.4540 H   0  0  0  0  0  0  0  0  0  0  0  0
    4.5875   -1.1939   -3.1595 H   0  0  0  0  0  0  0  0  0  0  0  0
    6.5104   -0.4543   -0.7672 H   0  0  0  0  0  0  0  0  0  0  0  0
    6.3715   -2.0009   -1.6391 H   0  0  0  0  0  0  0  0  0  0  0  0
    6.1542   -1.9633    0.1101 H   0  0  0  0  0  0  0  0  0  0  0  0
    4.1031   -1.0046    1.1089 H   0  0  0  0  0  0  0  0  0  0  0  0
    1.9890   -3.0324    2.3677 H   0  0  0  0  0  0  0  0  0  0  0  0
    1.6938   -3.3776    0.6280 H   0  0  0  0  0  0  0  0  0  0  0  0
    0.9684   -4.3931    1.8756 H   0  0  0  0  0  0  0  0  0  0  0  0
   -1.3442   -0.2931    2.2755 H   0  0  0  0  0  0  0  0  0  0  0  0
   -1.0123   -1.8929   -1.0524 H   0  0  0  0  0  0  0  0  0  0  0  0
   -2.8853   -2.3083   -2.5619 H   0  0  0  0  0  0  0  0  0  0  0  0
   -6.1556   -0.5516   -2.3792 H   0  0  0  0  0  0  0  0  0  0  0  0
   -5.1110   -1.5469   -3.3925 H   0  0  0  0  0  0  0  0  0  0  0  0
   -5.9702   -2.2859   -2.0185 H   0  0  0  0  0  0  0  0  0  0  0  0
   -5.4357    0.1242   -0.0871 H   0  0  0  0  0  0  0  0  0  0  0  0
   -3.5654    0.5495    1.4305 H   0  0  0  0  0  0  0  0  0  0  0  0
  1  2  1  0
  2  3  2  0
  2  4  1  0
  4  5  1  0
  5  6  2  0
  5  7  1  0
  7  8  1  0
  8  9  1  0
  9 10  1  0
 10 11  2  0
 11 12  1  0
 12 13  2  0
 13 14  1  0
 14 15  1  0
 14 16  2  0
  9 17  1  0
 17 18  1  0
 18 19  1  0
 18 20  2  0
 17 21  1  0
 21 22  1  0
 22 23  2  0
 23 24  1  0
 24 25  2  0
 25 26  1  0
 25 27  1  0
 27 28  2  0
 21  7  1  0
 28 22  1  0
 16 10  1  0
  1 29  1  0
  1 30  1  0
  1 31  1  0
  4 32  1  0
  7 33  1  0
  8 34  1  0
  8 35  1  0
  9 36  1  0
 11 37  1  0
 12 38  1  0
 13 39  1  0
 15 40  1  0
 15 41  1  0
 15 42  1  0
 16 43  1  0
 19 44  1  0
 19 45  1  0
 19 46  1  0
 21 47  1  0
 23 48  1  0
 24 49  1  0
 26 50  1  0
 26 51  1  0
 26 52  1  0
 27 53  1  0
 28 54  1  0
M  END
>  <smiles>  (2) 
CC(=O)NC(=O)C1CC(c2cccc(C)c2)N(C(C)=O)C1c1ccc(C)cc1

>  <mol_id>  (2) 
run14a_mol_2

>  <run_id>  (2) 
run14a

>  <original_index>  (2) 
2

>  <Agent>  (2) 
14.467

>  <Prior>  (2) 
12.326

>  <Target>  (2) 
109.8391

>  <Score>  (2) 
0.8144342

>  <SMILES>  (2) 
CC(=O)NC(=O)C1CC(c2cccc(C)c2)N(C(C)=O)C1c1ccc(C)cc1

>  <SMILES_state>  (2) 
1.0

>  <Input_Scaffold>  (2) 
c1ccc([*])cc1C1N([*])C(c2ccc([*])cc2)C(C(=O)N[*])C1

>  <R-groups>  (2) 
C*|CC(=O)*|C*|C(C)(=O)*

>  <Scaffold>  (2) 
c1ccc(C2CCC(c3ccccc3)N2)cc1

>  <DENV_Activity>  (2) 
0.9533081

>  <DENV_Activity (raw)>  (2) 
7.5263

>  <Stereo_Centers>  (2) 
1e-05

>  <Stereo_Centers (raw)>  (2) 
3.0

>  <QED>  (2) 
0.8870978

>  <QED (raw)>  (2) 
0.8871

>  <SA>  (2) 
0.3511029

>  <SA (raw)>  (2) 
3.4

>  <MW>  (2) 
0.9993863

>  <MW (raw)>  (2) 
378.472

>  <Heavy_Atoms>  (2) 
0.9281377

>  <Heavy_Atoms (raw)>  (2) 
28.0

>  <LogP>  (2) 
0.9982895

>  <LogP (raw)>  (2) 
3.6169

>  <TPSA>  (2) 
0.9999992

>  <TPSA (raw)>  (2) 
66.48

>  <HBA>  (2) 
0.97891

>  <HBA (raw)>  (2) 
3.0

>  <HBD>  (2) 
0.9467598

>  <HBD (raw)>  (2) 
1.0

>  <Rotatable_Bonds>  (2) 
0.8720069

>  <Rotatable_Bonds (raw)>  (2) 
3.0

>  <Ring_Count>  (2) 
0.8720069

>  <Ring_Count (raw)>  (2) 
3.0

>  <Aromatic_Rings>  (2) 
0.5

>  <Aromatic_Rings (raw)>  (2) 
2.0

>  <Stability_Alerts>  (2) 
1.0

>  <Stability_Alerts (raw)>  (2) 
1.0

>  <matchting_patterns (Stability_Alerts)>  (2) 
[]

>  <step>  (2) 
1.0

$$$$
run14a_mol_2
     RDKit          3D

 54 56  0  0  0  0  0  0  0  0999 V2000
   -2.2661    3.9357   -0.4868 C   0  0  0  0  0  0  0  0  0  0  0  0
   -2.4744    3.3524    0.8876 C   0  0  0  0  0  0  0  0  0  0  0  0
   -3.1567    3.9338    1.7232 O   0  0  0  0  0  0  0  0  0  0  0  0
   -1.7268    2.2127    1.1112 N   0  0  0  0  0  0  0  0  0  0  0  0
   -2.0434    1.2590    2.0572 C   0  0  0  0  0  0  0  0  0  0  0  0
   -3.0737    1.2497    2.7265 O   0  0  0  0  0  0  0  0  0  0  0  0
   -1.0658    0.1023    2.1862 C   0  0  0  0  0  0  0  0  0  0  0  0
    0.4156    0.4670    2.1678 C   0  0  0  0  0  0  0  0  0  0  0  0
    1.0864   -0.9047    1.9912 C   0  0  0  0  0  0  0  0  0  0  0  0
    2.4874   -0.8295    1.4085 C   0  0  0  0  0  0  0  0  0  0  0  0
    3.5058   -1.6072    1.9837 C   0  0  0  0  0  0  0  0  0  0  0  0
    4.8113   -1.5663    1.4927 C   0  0  0  0  0  0  0  0  0  0  0  0
    5.1243   -0.7506    0.4090 C   0  0  0  0  0  0  0  0  0  0  0  0
    4.1297    0.0168   -0.2021 C   0  0  0  0  0  0  0  0  0  0  0  0
    4.4674    0.9140   -1.3564 C   0  0  0  0  0  0  0  0  0  0  0  0
    2.8225   -0.0214    0.3090 C   0  0  0  0  0  0  0  0  0  0  0  0
    0.1308   -1.6833    1.1908 N   0  0  0  0  0  0  0  0  0  0  0  0
    0.2781   -3.0616    1.0969 C   0  0  0  0  0  0  0  0  0  0  0  0
   -0.7620   -3.8105    0.3000 C   0  0  0  0  0  0  0  0  0  0  0  0
    1.1964   -3.6750    1.6392 O   0  0  0  0  0  0  0  0  0  0  0  0
   -1.1867   -1.0226    1.1403 C   0  0  0  0  0  0  0  0  0  0  0  0
   -1.5878   -0.5853   -0.2600 C   0  0  0  0  0  0  0  0  0  0  0  0
   -2.9448   -0.3392   -0.5331 C   0  0  0  0  0  0  0  0  0  0  0  0
   -3.3570    0.1099   -1.7899 C   0  0  0  0  0  0  0  0  0  0  0  0
   -2.4235    0.3203   -2.8076 C   0  0  0  0  0  0  0  0  0  0  0  0
   -2.8703    0.7625   -4.1697 C   0  0  0  0  0  0  0  0  0  0  0  0
   -1.0773    0.0407   -2.5579 C   0  0  0  0  0  0  0  0  0  0  0  0
   -0.6649   -0.4053   -1.2990 C   0  0  0  0  0  0  0  0  0  0  0  0
   -1.4904    4.7041   -0.4376 H   0  0  0  0  0  0  0  0  0  0  0  0
   -3.2036    4.3789   -0.8344 H   0  0  0  0  0  0  0  0  0  0  0  0
   -1.9677    3.1689   -1.2067 H   0  0  0  0  0  0  0  0  0  0  0  0
   -1.1116    1.9278    0.3631 H   0  0  0  0  0  0  0  0  0  0  0  0
   -1.2555   -0.3403    3.1770 H   0  0  0  0  0  0  0  0  0  0  0  0
    0.6401    1.1583    1.3516 H   0  0  0  0  0  0  0  0  0  0  0  0
    0.7344    0.9579    3.0941 H   0  0  0  0  0  0  0  0  0  0  0  0
    1.1315   -1.3831    2.9802 H   0  0  0  0  0  0  0  0  0  0  0  0
    3.2822   -2.2723    2.8170 H   0  0  0  0  0  0  0  0  0  0  0  0
    5.5813   -2.1795    1.9537 H   0  0  0  0  0  0  0  0  0  0  0  0
    6.1466   -0.7266    0.0392 H   0  0  0  0  0  0  0  0  0  0  0  0
    4.7341    1.9101   -0.9901 H   0  0  0  0  0  0  0  0  0  0  0  0
    3.6179    1.0033   -2.0417 H   0  0  0  0  0  0  0  0  0  0  0  0
    5.3076    0.5122   -1.9326 H   0  0  0  0  0  0  0  0  0  0  0  0
    2.0680    0.5925   -0.1725 H   0  0  0  0  0  0  0  0  0  0  0  0
   -0.3809   -4.8100    0.0676 H   0  0  0  0  0  0  0  0  0  0  0  0
   -1.6796   -3.9173    0.8831 H   0  0  0  0  0  0  0  0  0  0  0  0
   -0.9663   -3.3108   -0.6484 H   0  0  0  0  0  0  0  0  0  0  0  0
   -1.9400   -1.7397    1.4910 H   0  0  0  0  0  0  0  0  0  0  0  0
   -3.7012   -0.4875    0.2386 H   0  0  0  0  0  0  0  0  0  0  0  0
   -4.4158    0.2898   -1.9684 H   0  0  0  0  0  0  0  0  0  0  0  0
   -2.0870    1.3436   -4.6677 H   0  0  0  0  0  0  0  0  0  0  0  0
   -3.7554    1.4036   -4.1007 H   0  0  0  0  0  0  0  0  0  0  0  0
   -3.1109   -0.1090   -4.7862 H   0  0  0  0  0  0  0  0  0  0  0  0
   -0.3384    0.1527   -3.3496 H   0  0  0  0  0  0  0  0  0  0  0  0
    0.3864   -0.6418   -1.1583 H   0  0  0  0  0  0  0  0  0  0  0  0
  1  2  1  0
  2  3  2  0
  2  4  1  0
  4  5  1  0
  5  6  2  0
  5  7  1  0
  7  8  1  0
  8  9  1  0
  9 10  1  0
 10 11  2  0
 11 12  1  0
 12 13  2  0
 13 14  1  0
 14 15  1  0
 14 16  2  0
  9 17  1  0
 17 18  1  0
 18 19  1  0
 18 20  2  0
 17 21  1  0
 21 22  1  0
 22 23  2  0
 23 24  1  0
 24 25  2  0
 25 26  1  0
 25 27  1  0
 27 28  2  0
 21  7  1  0
 28 22  1  0
 16 10  1  0
  1 29  1  0
  1 30  1  0
  1 31  1  0
  4 32  1  0
  7 33  1  0
  8 34  1  0
  8 35  1  0
  9 36  1  0
 11 37  1  0
 12 38  1  0
 13 39  1  0
 15 40  1  0
 15 41  1  0
 15 42  1  0
 16 43  1  0
 19 44  1  0
 19 45  1  0
 19 46  1  0
 21 47  1  0
 23 48  1  0
 24 49  1  0
 26 50  1  0
 26 51  1  0
 26 52  1  0
 27 53  1  0
 28 54  1  0
M  END
>  <smiles>  (3) 
CC(=O)NC(=O)C1CC(c2cccc(C)c2)N(C(C)=O)C1c1ccc(C)cc1

>  <mol_id>  (3) 
run14a_mol_2

>  <run_id>  (3) 
run14a

>  <original_index>  (3) 
2

>  <Agent>  (3) 
14.467

>  <Prior>  (3) 
12.326

>  <Target>  (3) 
109.8391

>  <Score>  (3) 
0.8144342

>  <SMILES>  (3) 
CC(=O)NC(=O)C1CC(c2cccc(C)c2)N(C(C)=O)C1c1ccc(C)cc1

>  <SMILES_state>  (3) 
1.0

>  <Input_Scaffold>  (3) 
c1ccc([*])cc1C1N([*])C(c2ccc([*])cc2)C(C(=O)N[*])C1

>  <R-groups>  (3) 
C*|CC(=O)*|C*|C(C)(=O)*

>  <Scaffold>  (3) 
c1ccc(C2CCC(c3ccccc3)N2)cc1

>  <DENV_Activity>  (3) 
0.9533081

>  <DENV_Activity (raw)>  (3) 
7.5263

>  <Stereo_Centers>  (3) 
1e-05

>  <Stereo_Centers (raw)>  (3) 
3.0

>  <QED>  (3) 
0.8870978

>  <QED (raw)>  (3) 
0.8871

>  <SA>  (3) 
0.3511029

>  <SA (raw)>  (3) 
3.4

>  <MW>  (3) 
0.9993863

>  <MW (raw)>  (3) 
378.472

>  <Heavy_Atoms>  (3) 
0.9281377

>  <Heavy_Atoms (raw)>  (3) 
28.0

>  <LogP>  (3) 
0.9982895

>  <LogP (raw)>  (3) 
3.6169

>  <TPSA>  (3) 
0.9999992

>  <TPSA (raw)>  (3) 
66.48

>  <HBA>  (3) 
0.97891

>  <HBA (raw)>  (3) 
3.0

>  <HBD>  (3) 
0.9467598

>  <HBD (raw)>  (3) 
1.0

>  <Rotatable_Bonds>  (3) 
0.8720069

>  <Rotatable_Bonds (raw)>  (3) 
3.0

>  <Ring_Count>  (3) 
0.8720069

>  <Ring_Count (raw)>  (3) 
3.0

>  <Aromatic_Rings>  (3) 
0.5

>  <Aromatic_Rings (raw)>  (3) 
2.0

>  <Stability_Alerts>  (3) 
1.0

>  <Stability_Alerts (raw)>  (3) 
1.0

>  <matchting_patterns (Stability_Alerts)>  (3) 
[]

>  <step>  (3) 
1.0

$$$$
run14a_mol_2
     RDKit          3D

 54 56  0  0  0  0  0  0  0  0999 V2000
   -2.4023    3.4357    2.7447 C   0  0  0  0  0  0  0  0  0  0  0  0
   -1.1197    2.6475    2.6810 C   0  0  0  0  0  0  0  0  0  0  0  0
   -0.0395    3.1692    2.9282 O   0  0  0  0  0  0  0  0  0  0  0  0
   -1.3078    1.3522    2.2407 N   0  0  0  0  0  0  0  0  0  0  0  0
   -0.3088    0.3932    2.2088 C   0  0  0  0  0  0  0  0  0  0  0  0
    0.6249    0.3446    3.0000 O   0  0  0  0  0  0  0  0  0  0  0  0
   -0.5813   -0.7101    1.1966 C   0  0  0  0  0  0  0  0  0  0  0  0
    0.4886   -1.8088    1.1491 C   0  0  0  0  0  0  0  0  0  0  0  0
    1.3831   -1.4736   -0.0497 C   0  0  0  0  0  0  0  0  0  0  0  0
    2.6913   -0.8290    0.3703 C   0  0  0  0  0  0  0  0  0  0  0  0
    3.8195   -1.6441    0.5610 C   0  0  0  0  0  0  0  0  0  0  0  0
    5.0418   -1.0947    0.9493 C   0  0  0  0  0  0  0  0  0  0  0  0
    5.1537    0.2766    1.1673 C   0  0  0  0  0  0  0  0  0  0  0  0
    4.0413    1.1075    1.0090 C   0  0  0  0  0  0  0  0  0  0  0  0
    4.1523    2.5869    1.2349 C   0  0  0  0  0  0  0  0  0  0  0  0
    2.8223    0.5505    0.5964 C   0  0  0  0  0  0  0  0  0  0  0  0
    0.5506   -0.6502   -0.9209 N   0  0  0  0  0  0  0  0  0  0  0  0
    0.9000   -0.1677   -2.1673 C   0  0  0  0  0  0  0  0  0  0  0  0
    2.1064   -0.7758   -2.8373 C   0  0  0  0  0  0  0  0  0  0  0  0
    0.2684    0.7317   -2.7236 O   0  0  0  0  0  0  0  0  0  0  0  0
   -0.6344   -0.1483   -0.2369 C   0  0  0  0  0  0  0  0  0  0  0  0
   -1.9326   -0.5485   -0.9244 C   0  0  0  0  0  0  0  0  0  0  0  0
   -2.2643   -1.8905   -1.1644 C   0  0  0  0  0  0  0  0  0  0  0  0
   -3.4790   -2.2298   -1.7662 C   0  0  0  0  0  0  0  0  0  0  0  0
   -4.3795   -1.2352   -2.1593 C   0  0  0  0  0  0  0  0  0  0  0  0
   -5.6923   -1.6013   -2.7857 C   0  0  0  0  0  0  0  0  0  0  0  0
   -4.0544    0.1043   -1.9251 C   0  0  0  0  0  0  0  0  0  0  0  0
   -2.8413    0.4445   -1.3212 C   0  0  0  0  0  0  0  0  0  0  0  0
   -2.3482    4.1453    3.5751 H   0  0  0  0  0  0  0  0  0  0  0  0
   -2.5391    3.9773    1.8052 H   0  0  0  0  0  0  0  0  0  0  0  0
   -3.2617    2.7806    2.9140 H   0  0  0  0  0  0  0  0  0  0  0  0
   -2.1853    1.1429    1.7859 H   0  0  0  0  0  0  0  0  0  0  0  0
   -1.5321   -1.1587    1.5166 H   0  0  0  0  0  0  0  0  0  0  0  0
    1.0408   -1.9380    2.0856 H   0  0  0  0  0  0  0  0  0  0  0  0
   -0.0135   -2.7645    0.9491 H   0  0  0  0  0  0  0  0  0  0  0  0
    1.6127   -2.3952   -0.5982 H   0  0  0  0  0  0  0  0  0  0  0  0
    3.7563   -2.7191    0.4067 H   0  0  0  0  0  0  0  0  0  0  0  0
    5.9076   -1.7367    1.0884 H   0  0  0  0  0  0  0  0  0  0  0  0
    6.1105    0.6928    1.4732 H   0  0  0  0  0  0  0  0  0  0  0  0
    4.3536    3.0955    0.2871 H   0  0  0  0  0  0  0  0  0  0  0  0
    4.9602    2.8178    1.9371 H   0  0  0  0  0  0  0  0  0  0  0  0
    3.2263    2.9848    1.6634 H   0  0  0  0  0  0  0  0  0  0  0  0
    1.9702    1.2137    0.4663 H   0  0  0  0  0  0  0  0  0  0  0  0
    2.1386   -1.8579   -2.6940 H   0  0  0  0  0  0  0  0  0  0  0  0
    3.0195   -0.3122   -2.4582 H   0  0  0  0  0  0  0  0  0  0  0  0
    2.0435   -0.5921   -3.9146 H   0  0  0  0  0  0  0  0  0  0  0  0
   -0.5549    0.9465   -0.2440 H   0  0  0  0  0  0  0  0  0  0  0  0
   -1.5781   -2.6884   -0.8936 H   0  0  0  0  0  0  0  0  0  0  0  0
   -3.7125   -3.2786   -1.9375 H   0  0  0  0  0  0  0  0  0  0  0  0
   -6.0262   -0.8213   -3.4780 H   0  0  0  0  0  0  0  0  0  0  0  0
   -6.4523   -1.7348   -2.0098 H   0  0  0  0  0  0  0  0  0  0  0  0
   -5.6059   -2.5295   -3.3603 H   0  0  0  0  0  0  0  0  0  0  0  0
   -4.7366    0.8951   -2.2298 H   0  0  0  0  0  0  0  0  0  0  0  0
   -2.6003    1.4978   -1.1912 H   0  0  0  0  0  0  0  0  0  0  0  0
  1  2  1  0
  2  3  2  0
  2  4  1  0
  4  5  1  0
  5  6  2  0
  5  7  1  0
  7  8  1  0
  8  9  1  0
  9 10  1  0
 10 11  2  0
 11 12  1  0
 12 13  2  0
 13 14  1  0
 14 15  1  0
 14 16  2  0
  9 17  1  0
 17 18  1  0
 18 19  1  0
 18 20  2  0
 17 21  1  0
 21 22  1  0
 22 23  2  0
 23 24  1  0
 24 25  2  0
 25 26  1  0
 25 27  1  0
 27 28  2  0
 21  7  1  0
 28 22  1  0
 16 10  1  0
  1 29  1  0
  1 30  1  0
  1 31  1  0
  4 32  1  0
  7 33  1  0
  8 34  1  0
  8 35  1  0
  9 36  1  0
 11 37  1  0
 12 38  1  0
 13 39  1  0
 15 40  1  0
 15 41  1  0
 15 42  1  0
 16 43  1  0
 19 44  1  0
 19 45  1  0
 19 46  1  0
 21 47  1  0
 23 48  1  0
 24 49  1  0
 26 50  1  0
 26 51  1  0
 26 52  1  0
 27 53  1  0
 28 54  1  0
M  END
>  <smiles>  (4) 
CC(=O)NC(=O)C1CC(c2cccc(C)c2)N(C(C)=O)C1c1ccc(C)cc1

>  <mol_id>  (4) 
run14a_mol_2

>  <run_id>  (4) 
run14a

>  <original_index>  (4) 
2

>  <Agent>  (4) 
14.467

>  <Prior>  (4) 
12.326

>  <Target>  (4) 
109.8391

>  <Score>  (4) 
0.8144342

>  <SMILES>  (4) 
CC(=O)NC(=O)C1CC(c2cccc(C)c2)N(C(C)=O)C1c1ccc(C)cc1

>  <SMILES_state>  (4) 
1.0

>  <Input_Scaffold>  (4) 
c1ccc([*])cc1C1N([*])C(c2ccc([*])cc2)C(C(=O)N[*])C1

>  <R-groups>  (4) 
C*|CC(=O)*|C*|C(C)(=O)*

>  <Scaffold>  (4) 
c1ccc(C2CCC(c3ccccc3)N2)cc1

>  <DENV_Activity>  (4) 
0.9533081

>  <DENV_Activity (raw)>  (4) 
7.5263

>  <Stereo_Centers>  (4) 
1e-05

>  <Stereo_Centers (raw)>  (4) 
3.0

>  <QED>  (4) 
0.8870978

>  <QED (raw)>  (4) 
0.8871

>  <SA>  (4) 
0.3511029

>  <SA (raw)>  (4) 
3.4

>  <MW>  (4) 
0.9993863

>  <MW (raw)>  (4) 
378.472

>  <Heavy_Atoms>  (4) 
0.9281377

>  <Heavy_Atoms (raw)>  (4) 
28.0

>  <LogP>  (4) 
0.9982895

>  <LogP (raw)>  (4) 
3.6169

>  <TPSA>  (4) 
0.9999992

>  <TPSA (raw)>  (4) 
66.48

>  <HBA>  (4) 
0.97891

>  <HBA (raw)>  (4) 
3.0

>  <HBD>  (4) 
0.9467598

>  <HBD (raw)>  (4) 
1.0

>  <Rotatable_Bonds>  (4) 
0.8720069

>  <Rotatable_Bonds (raw)>  (4) 
3.0

>  <Ring_Count>  (4) 
0.8720069

>  <Ring_Count (raw)>  (4) 
3.0

>  <Aromatic_Rings>  (4) 
0.5

>  <Aromatic_Rings (raw)>  (4) 
2.0

>  <Stability_Alerts>  (4) 
1.0

>  <Stability_Alerts (raw)>  (4) 
1.0

>  <matchting_patterns (Stability_Alerts)>  (4) 
[]

>  <step>  (4) 
1.0

$$$$
run14a_mol_2
     RDKit          3D

 54 56  0  0  0  0  0  0  0  0999 V2000
   -3.2987    4.4310    0.8742 C   0  0  0  0  0  0  0  0  0  0  0  0
   -3.1956    2.9950    1.3208 C   0  0  0  0  0  0  0  0  0  0  0  0
   -4.1645    2.4065    1.7837 O   0  0  0  0  0  0  0  0  0  0  0  0
   -1.9534    2.4450    1.0654 N   0  0  0  0  0  0  0  0  0  0  0  0
   -1.5386    1.2062    1.5183 C   0  0  0  0  0  0  0  0  0  0  0  0
   -1.9862    0.6659    2.5253 O   0  0  0  0  0  0  0  0  0  0  0  0
   -0.2923    0.6729    0.8300 C   0  0  0  0  0  0  0  0  0  0  0  0
   -0.0548    1.0593   -0.6332 C   0  0  0  0  0  0  0  0  0  0  0  0
    1.0597    0.0913   -1.0735 C   0  0  0  0  0  0  0  0  0  0  0  0
    2.4212    0.7590   -0.9654 C   0  0  0  0  0  0  0  0  0  0  0  0
    2.9199    1.4664   -2.0712 C   0  0  0  0  0  0  0  0  0  0  0  0
    4.1573    2.1072   -2.0088 C   0  0  0  0  0  0  0  0  0  0  0  0
    4.9119    2.0583   -0.8384 C   0  0  0  0  0  0  0  0  0  0  0  0
    4.4310    1.3771    0.2836 C   0  0  0  0  0  0  0  0  0  0  0  0
    5.2594    1.2877    1.5319 C   0  0  0  0  0  0  0  0  0  0  0  0
    3.1927    0.7241    0.2088 C   0  0  0  0  0  0  0  0  0  0  0  0
    0.8894   -1.0791   -0.2112 N   0  0  0  0  0  0  0  0  0  0  0  0
    1.5638   -2.2797   -0.2873 C   0  0  0  0  0  0  0  0  0  0  0  0
    2.5078   -2.4731   -1.4471 C   0  0  0  0  0  0  0  0  0  0  0  0
    1.4325   -3.1644    0.5580 O   0  0  0  0  0  0  0  0  0  0  0  0
   -0.1640   -0.8650    0.7966 C   0  0  0  0  0  0  0  0  0  0  0  0
   -1.4409   -1.6259    0.4339 C   0  0  0  0  0  0  0  0  0  0  0  0
   -1.8759   -1.8207   -0.8870 C   0  0  0  0  0  0  0  0  0  0  0  0
   -3.0593   -2.5139   -1.1638 C   0  0  0  0  0  0  0  0  0  0  0  0
   -3.8335   -3.0411   -0.1274 C   0  0  0  0  0  0  0  0  0  0  0  0
   -5.1212   -3.7507   -0.4195 C   0  0  0  0  0  0  0  0  0  0  0  0
   -3.4147   -2.8479    1.1907 C   0  0  0  0  0  0  0  0  0  0  0  0
   -2.2300   -2.1590    1.4653 C   0  0  0  0  0  0  0  0  0  0  0  0
   -3.6716    4.4634   -0.1527 H   0  0  0  0  0  0  0  0  0  0  0  0
   -2.3275    4.9317    0.9245 H   0  0  0  0  0  0  0  0  0  0  0  0
   -3.9890    4.9649    1.5335 H   0  0  0  0  0  0  0  0  0  0  0  0
   -1.3296    2.9757    0.4793 H   0  0  0  0  0  0  0  0  0  0  0  0
    0.5454    1.0765    1.4173 H   0  0  0  0  0  0  0  0  0  0  0  0
   -0.9647    0.8978   -1.2231 H   0  0  0  0  0  0  0  0  0  0  0  0
    0.2212    2.1125   -0.7535 H   0  0  0  0  0  0  0  0  0  0  0  0
    0.8967   -0.2230   -2.1110 H   0  0  0  0  0  0  0  0  0  0  0  0
    2.3506    1.5177   -2.9973 H   0  0  0  0  0  0  0  0  0  0  0  0
    4.5384    2.6413   -2.8758 H   0  0  0  0  0  0  0  0  0  0  0  0
    5.8805    2.5528   -0.8076 H   0  0  0  0  0  0  0  0  0  0  0  0
    5.8888    0.3932    1.4996 H   0  0  0  0  0  0  0  0  0  0  0  0
    5.9013    2.1684    1.6396 H   0  0  0  0  0  0  0  0  0  0  0  0
    4.6211    1.2411    2.4205 H   0  0  0  0  0  0  0  0  0  0  0  0
    2.8391    0.1731    1.0793 H   0  0  0  0  0  0  0  0  0  0  0  0
    3.4527   -1.9621   -1.2513 H   0  0  0  0  0  0  0  0  0  0  0  0
    2.0677   -2.1188   -2.3816 H   0  0  0  0  0  0  0  0  0  0  0  0
    2.7091   -3.5425   -1.5666 H   0  0  0  0  0  0  0  0  0  0  0  0
    0.2091   -1.2377    1.7593 H   0  0  0  0  0  0  0  0  0  0  0  0
   -1.2979   -1.4518   -1.7279 H   0  0  0  0  0  0  0  0  0  0  0  0
   -3.3697   -2.6448   -2.1978 H   0  0  0  0  0  0  0  0  0  0  0  0
   -5.0754   -4.2613   -1.3872 H   0  0  0  0  0  0  0  0  0  0  0  0
   -5.3286   -4.5126    0.3394 H   0  0  0  0  0  0  0  0  0  0  0  0
   -5.9480   -3.0340   -0.4367 H   0  0  0  0  0  0  0  0  0  0  0  0
   -4.0074   -3.2283    2.0196 H   0  0  0  0  0  0  0  0  0  0  0  0
   -1.9356   -2.0256    2.5056 H   0  0  0  0  0  0  0  0  0  0  0  0
  1  2  1  0
  2  3  2  0
  2  4  1  0
  4  5  1  0
  5  6  2  0
  5  7  1  0
  7  8  1  0
  8  9  1  0
  9 10  1  0
 10 11  2  0
 11 12  1  0
 12 13  2  0
 13 14  1  0
 14 15  1  0
 14 16  2  0
  9 17  1  0
 17 18  1  0
 18 19  1  0
 18 20  2  0
 17 21  1  0
 21 22  1  0
 22 23  2  0
 23 24  1  0
 24 25  2  0
 25 26  1  0
 25 27  1  0
 27 28  2  0
 21  7  1  0
 28 22  1  0
 16 10  1  0
  1 29  1  0
  1 30  1  0
  1 31  1  0
  4 32  1  0
  7 33  1  0
  8 34  1  0
  8 35  1  0
  9 36  1  0
 11 37  1  0
 12 38  1  0
 13 39  1  0
 15 40  1  0
 15 41  1  0
 15 42  1  0
 16 43  1  0
 19 44  1  0
 19 45  1  0
 19 46  1  0
 21 47  1  0
 23 48  1  0
 24 49  1  0
 26 50  1  0
 26 51  1  0
 26 52  1  0
 27 53  1  0
 28 54  1  0
M  END
>  <smiles>  (5) 
CC(=O)NC(=O)C1CC(c2cccc(C)c2)N(C(C)=O)C1c1ccc(C)cc1

>  <mol_id>  (5) 
run14a_mol_2

>  <run_id>  (5) 
run14a

>  <original_index>  (5) 
2

>  <Agent>  (5) 
14.467

>  <Prior>  (5) 
12.326

>  <Target>  (5) 
109.8391

>  <Score>  (5) 
0.8144342

>  <SMILES>  (5) 
CC(=O)NC(=O)C1CC(c2cccc(C)c2)N(C(C)=O)C1c1ccc(C)cc1

>  <SMILES_state>  (5) 
1.0

>  <Input_Scaffold>  (5) 
c1ccc([*])cc1C1N([*])C(c2ccc([*])cc2)C(C(=O)N[*])C1

>  <R-groups>  (5) 
C*|CC(=O)*|C*|C(C)(=O)*

>  <Scaffold>  (5) 
c1ccc(C2CCC(c3ccccc3)N2)cc1

>  <DENV_Activity>  (5) 
0.9533081

>  <DENV_Activity (raw)>  (5) 
7.5263

>  <Stereo_Centers>  (5) 
1e-05

>  <Stereo_Centers (raw)>  (5) 
3.0

>  <QED>  (5) 
0.8870978

>  <QED (raw)>  (5) 
0.8871

>  <SA>  (5) 
0.3511029

>  <SA (raw)>  (5) 
3.4

>  <MW>  (5) 
0.9993863

>  <MW (raw)>  (5) 
378.472

>  <Heavy_Atoms>  (5) 
0.9281377

>  <Heavy_Atoms (raw)>  (5) 
28.0

>  <LogP>  (5) 
0.9982895

>  <LogP (raw)>  (5) 
3.6169

>  <TPSA>  (5) 
0.9999992

>  <TPSA (raw)>  (5) 
66.48

>  <HBA>  (5) 
0.97891

>  <HBA (raw)>  (5) 
3.0

>  <HBD>  (5) 
0.9467598

>  <HBD (raw)>  (5) 
1.0

>  <Rotatable_Bonds>  (5) 
0.8720069

>  <Rotatable_Bonds (raw)>  (5) 
3.0

>  <Ring_Count>  (5) 
0.8720069

>  <Ring_Count (raw)>  (5) 
3.0

>  <Aromatic_Rings>  (5) 
0.5

>  <Aromatic_Rings (raw)>  (5) 
2.0

>  <Stability_Alerts>  (5) 
1.0

>  <Stability_Alerts (raw)>  (5) 
1.0

>  <matchting_patterns (Stability_Alerts)>  (5) 
[]

>  <step>  (5) 
1.0

$$$$
run14a_mol_2
     RDKit          3D

 54 56  0  0  0  0  0  0  0  0999 V2000
    5.0612    2.8996    1.4785 C   0  0  0  0  0  0  0  0  0  0  0  0
    4.2773    2.8532    0.1916 C   0  0  0  0  0  0  0  0  0  0  0  0
    4.6622    3.4521   -0.8046 O   0  0  0  0  0  0  0  0  0  0  0  0
    3.0794    2.1730    0.3220 N   0  0  0  0  0  0  0  0  0  0  0  0
    2.3033    1.7329   -0.7353 C   0  0  0  0  0  0  0  0  0  0  0  0
    2.6358    1.7875   -1.9157 O   0  0  0  0  0  0  0  0  0  0  0  0
    0.9536    1.1373   -0.3598 C   0  0  0  0  0  0  0  0  0  0  0  0
    0.0654    2.1027    0.4310 C   0  0  0  0  0  0  0  0  0  0  0  0
   -0.9112    1.1761    1.1698 C   0  0  0  0  0  0  0  0  0  0  0  0
   -2.1658    0.8355    0.3793 C   0  0  0  0  0  0  0  0  0  0  0  0
   -2.5911   -0.4843    0.1653 C   0  0  0  0  0  0  0  0  0  0  0  0
   -3.7642   -0.7577   -0.5404 C   0  0  0  0  0  0  0  0  0  0  0  0
   -4.5432    0.2845   -1.0357 C   0  0  0  0  0  0  0  0  0  0  0  0
   -4.1547    1.6103   -0.8305 C   0  0  0  0  0  0  0  0  0  0  0  0
   -5.0150    2.7376   -1.3213 C   0  0  0  0  0  0  0  0  0  0  0  0
   -2.9817    1.8744   -0.1078 C   0  0  0  0  0  0  0  0  0  0  0  0
   -0.0646    0.0237    1.4900 N   0  0  0  0  0  0  0  0  0  0  0  0
    0.0023   -0.5567    2.7444 C   0  0  0  0  0  0  0  0  0  0  0  0
   -1.1986   -0.4028    3.6439 C   0  0  0  0  0  0  0  0  0  0  0  0
    1.0060   -1.1461    3.1458 O   0  0  0  0  0  0  0  0  0  0  0  0
    1.0672   -0.0940    0.5572 C   0  0  0  0  0  0  0  0  0  0  0  0
    1.1020   -1.4416   -0.1495 C   0  0  0  0  0  0  0  0  0  0  0  0
    1.9236   -2.4599    0.3636 C   0  0  0  0  0  0  0  0  0  0  0  0
    1.9879   -3.7175   -0.2435 C   0  0  0  0  0  0  0  0  0  0  0  0
    1.2343   -3.9910   -1.3865 C   0  0  0  0  0  0  0  0  0  0  0  0
    1.2771   -5.3483   -2.0217 C   0  0  0  0  0  0  0  0  0  0  0  0
    0.3923   -2.9969   -1.8903 C   0  0  0  0  0  0  0  0  0  0  0  0
    0.3278   -1.7391   -1.2804 C   0  0  0  0  0  0  0  0  0  0  0  0
    4.8895    2.0002    2.0770 H   0  0  0  0  0  0  0  0  0  0  0  0
    4.7629    3.7812    2.0517 H   0  0  0  0  0  0  0  0  0  0  0  0
    6.1292    2.9541    1.2488 H   0  0  0  0  0  0  0  0  0  0  0  0
    2.8117    1.9119    1.2586 H   0  0  0  0  0  0  0  0  0  0  0  0
    0.4347    0.9143   -1.2981 H   0  0  0  0  0  0  0  0  0  0  0  0
   -0.4066    2.8439   -0.2207 H   0  0  0  0  0  0  0  0  0  0  0  0
    0.6547    2.6618    1.1686 H   0  0  0  0  0  0  0  0  0  0  0  0
   -1.2369    1.6649    2.0953 H   0  0  0  0  0  0  0  0  0  0  0  0
   -2.0168   -1.3273    0.5447 H   0  0  0  0  0  0  0  0  0  0  0  0
   -4.0718   -1.7885   -0.6987 H   0  0  0  0  0  0  0  0  0  0  0  0
   -5.4579    0.0550   -1.5776 H   0  0  0  0  0  0  0  0  0  0  0  0
   -5.7326    3.0249   -0.5467 H   0  0  0  0  0  0  0  0  0  0  0  0
   -5.5646    2.4469   -2.2227 H   0  0  0  0  0  0  0  0  0  0  0  0
   -4.4047    3.6090   -1.5807 H   0  0  0  0  0  0  0  0  0  0  0  0
   -2.7091    2.9122    0.0785 H   0  0  0  0  0  0  0  0  0  0  0  0
   -1.1368    0.5479    4.1793 H   0  0  0  0  0  0  0  0  0  0  0  0
   -1.2059   -1.2205    4.3711 H   0  0  0  0  0  0  0  0  0  0  0  0
   -2.1320   -0.4568    3.0809 H   0  0  0  0  0  0  0  0  0  0  0  0
    1.9830   -0.0216    1.1566 H   0  0  0  0  0  0  0  0  0  0  0  0
    2.5164   -2.2879    1.2610 H   0  0  0  0  0  0  0  0  0  0  0  0
    2.6298   -4.4820    0.1885 H   0  0  0  0  0  0  0  0  0  0  0  0
    0.5178   -5.9959   -1.5728 H   0  0  0  0  0  0  0  0  0  0  0  0
    1.0933   -5.2812   -3.0992 H   0  0  0  0  0  0  0  0  0  0  0  0
    2.2607   -5.8110   -1.8888 H   0  0  0  0  0  0  0  0  0  0  0  0
   -0.2243   -3.1922   -2.7652 H   0  0  0  0  0  0  0  0  0  0  0  0
   -0.3524   -1.0081   -1.7095 H   0  0  0  0  0  0  0  0  0  0  0  0
  1  2  1  0
  2  3  2  0
  2  4  1  0
  4  5  1  0
  5  6  2  0
  5  7  1  0
  7  8  1  0
  8  9  1  0
  9 10  1  0
 10 11  2  0
 11 12  1  0
 12 13  2  0
 13 14  1  0
 14 15  1  0
 14 16  2  0
  9 17  1  0
 17 18  1  0
 18 19  1  0
 18 20  2  0
 17 21  1  0
 21 22  1  0
 22 23  2  0
 23 24  1  0
 24 25  2  0
 25 26  1  0
 25 27  1  0
 27 28  2  0
 21  7  1  0
 28 22  1  0
 16 10  1  0
  1 29  1  0
  1 30  1  0
  1 31  1  0
  4 32  1  0
  7 33  1  0
  8 34  1  0
  8 35  1  0
  9 36  1  0
 11 37  1  0
 12 38  1  0
 13 39  1  0
 15 40  1  0
 15 41  1  0
 15 42  1  0
 16 43  1  0
 19 44  1  0
 19 45  1  0
 19 46  1  0
 21 47  1  0
 23 48  1  0
 24 49  1  0
 26 50  1  0
 26 51  1  0
 26 52  1  0
 27 53  1  0
 28 54  1  0
M  END
>  <smiles>  (6) 
CC(=O)NC(=O)C1CC(c2cccc(C)c2)N(C(C)=O)C1c1ccc(C)cc1

>  <mol_id>  (6) 
run14a_mol_2

>  <run_id>  (6) 
run14a

>  <original_index>  (6) 
2

>  <Agent>  (6) 
14.467

>  <Prior>  (6) 
12.326

>  <Target>  (6) 
109.8391

>  <Score>  (6) 
0.8144342

>  <SMILES>  (6) 
CC(=O)NC(=O)C1CC(c2cccc(C)c2)N(C(C)=O)C1c1ccc(C)cc1

>  <SMILES_state>  (6) 
1.0

>  <Input_Scaffold>  (6) 
c1ccc([*])cc1C1N([*])C(c2ccc([*])cc2)C(C(=O)N[*])C1

>  <R-groups>  (6) 
C*|CC(=O)*|C*|C(C)(=O)*

>  <Scaffold>  (6) 
c1ccc(C2CCC(c3ccccc3)N2)cc1

>  <DENV_Activity>  (6) 
0.9533081

>  <DENV_Activity (raw)>  (6) 
7.5263

>  <Stereo_Centers>  (6) 
1e-05

>  <Stereo_Centers (raw)>  (6) 
3.0

>  <QED>  (6) 
0.8870978

>  <QED (raw)>  (6) 
0.8871

>  <SA>  (6) 
0.3511029

>  <SA (raw)>  (6) 
3.4

>  <MW>  (6) 
0.9993863

>  <MW (raw)>  (6) 
378.472

>  <Heavy_Atoms>  (6) 
0.9281377

>  <Heavy_Atoms (raw)>  (6) 
28.0

>  <LogP>  (6) 
0.9982895

>  <LogP (raw)>  (6) 
3.6169

>  <TPSA>  (6) 
0.9999992

>  <TPSA (raw)>  (6) 
66.48

>  <HBA>  (6) 
0.97891

>  <HBA (raw)>  (6) 
3.0

>  <HBD>  (6) 
0.9467598

>  <HBD (raw)>  (6) 
1.0

>  <Rotatable_Bonds>  (6) 
0.8720069

>  <Rotatable_Bonds (raw)>  (6) 
3.0

>  <Ring_Count>  (6) 
0.8720069

>  <Ring_Count (raw)>  (6) 
3.0

>  <Aromatic_Rings>  (6) 
0.5

>  <Aromatic_Rings (raw)>  (6) 
2.0

>  <Stability_Alerts>  (6) 
1.0

>  <Stability_Alerts (raw)>  (6) 
1.0

>  <matchting_patterns (Stability_Alerts)>  (6) 
[]

>  <step>  (6) 
1.0

$$$$
run14a_mol_2
     RDKit          3D

 54 56  0  0  0  0  0  0  0  0999 V2000
    3.0004    3.2505   -2.0558 C   0  0  0  0  0  0  0  0  0  0  0  0
    2.1744    3.6088   -0.8486 C   0  0  0  0  0  0  0  0  0  0  0  0
    2.1887    4.7395   -0.3727 O   0  0  0  0  0  0  0  0  0  0  0  0
    1.5563    2.5173   -0.2759 N   0  0  0  0  0  0  0  0  0  0  0  0
    0.3600    2.6006    0.3956 C   0  0  0  0  0  0  0  0  0  0  0  0
   -0.3877    3.5762    0.3330 O   0  0  0  0  0  0  0  0  0  0  0  0
   -0.0151    1.4069    1.2863 C   0  0  0  0  0  0  0  0  0  0  0  0
   -1.5421    1.1784    1.2269 C   0  0  0  0  0  0  0  0  0  0  0  0
   -1.7239    0.3155   -0.0447 C   0  0  0  0  0  0  0  0  0  0  0  0
   -2.8511   -0.6833    0.1014 C   0  0  0  0  0  0  0  0  0  0  0  0
   -2.6360   -2.0081    0.5074 C   0  0  0  0  0  0  0  0  0  0  0  0
   -3.7077   -2.8897    0.6529 C   0  0  0  0  0  0  0  0  0  0  0  0
   -5.0088   -2.4604    0.3971 C   0  0  0  0  0  0  0  0  0  0  0  0
   -5.2504   -1.1467   -0.0151 C   0  0  0  0  0  0  0  0  0  0  0  0
   -6.6534   -0.6709   -0.2530 C   0  0  0  0  0  0  0  0  0  0  0  0
   -4.1701   -0.2632   -0.1452 C   0  0  0  0  0  0  0  0  0  0  0  0
   -0.3994   -0.2920   -0.2904 N   0  0  0  0  0  0  0  0  0  0  0  0
    0.0921   -0.1641   -1.5889 C   0  0  0  0  0  0  0  0  0  0  0  0
   -0.8185   -0.6508   -2.6892 C   0  0  0  0  0  0  0  0  0  0  0  0
    1.1869    0.3375   -1.8420 O   0  0  0  0  0  0  0  0  0  0  0  0
    0.4459    0.0068    0.8763 C   0  0  0  0  0  0  0  0  0  0  0  0
    1.9065   -0.3960    0.8780 C   0  0  0  0  0  0  0  0  0  0  0  0
    2.3081   -1.6077    0.2908 C   0  0  0  0  0  0  0  0  0  0  0  0
    3.6431   -2.0207    0.3205 C   0  0  0  0  0  0  0  0  0  0  0  0
    4.6122   -1.2395    0.9534 C   0  0  0  0  0  0  0  0  0  0  0  0
    6.0396   -1.6954    1.0124 C   0  0  0  0  0  0  0  0  0  0  0  0
    4.2167   -0.0600    1.5885 C   0  0  0  0  0  0  0  0  0  0  0  0
    2.8802    0.3518    1.5587 C   0  0  0  0  0  0  0  0  0  0  0  0
    3.3101    4.1646   -2.5704 H   0  0  0  0  0  0  0  0  0  0  0  0
    3.8870    2.6929   -1.7428 H   0  0  0  0  0  0  0  0  0  0  0  0
    2.4110    2.6500   -2.7539 H   0  0  0  0  0  0  0  0  0  0  0  0
    1.7595    1.6192   -0.7152 H   0  0  0  0  0  0  0  0  0  0  0  0
    0.2927    1.6596    2.3073 H   0  0  0  0  0  0  0  0  0  0  0  0
   -1.8628    0.6337    2.1254 H   0  0  0  0  0  0  0  0  0  0  0  0
   -2.1408    2.0937    1.1800 H   0  0  0  0  0  0  0  0  0  0  0  0
   -1.9514    0.9863   -0.8844 H   0  0  0  0  0  0  0  0  0  0  0  0
   -1.6327   -2.3711    0.7166 H   0  0  0  0  0  0  0  0  0  0  0  0
   -3.5284   -3.9138    0.9709 H   0  0  0  0  0  0  0  0  0  0  0  0
   -5.8339   -3.1578    0.5232 H   0  0  0  0  0  0  0  0  0  0  0  0
   -7.2913   -1.4912   -0.5985 H   0  0  0  0  0  0  0  0  0  0  0  0
   -7.0718   -0.2628    0.6721 H   0  0  0  0  0  0  0  0  0  0  0  0
   -6.6763    0.1051   -1.0254 H   0  0  0  0  0  0  0  0  0  0  0  0
   -4.3612    0.7676   -0.4424 H   0  0  0  0  0  0  0  0  0  0  0  0
   -0.2066   -1.0314   -3.5125 H   0  0  0  0  0  0  0  0  0  0  0  0
   -1.4360    0.1742   -3.0522 H   0  0  0  0  0  0  0  0  0  0  0  0
   -1.4535   -1.4698   -2.3437 H   0  0  0  0  0  0  0  0  0  0  0  0
    0.0488   -0.6680    1.6548 H   0  0  0  0  0  0  0  0  0  0  0  0
    1.5793   -2.2467   -0.2042 H   0  0  0  0  0  0  0  0  0  0  0  0
    3.9188   -2.9596   -0.1548 H   0  0  0  0  0  0  0  0  0  0  0  0
    6.1986   -2.3142    1.9008 H   0  0  0  0  0  0  0  0  0  0  0  0
    6.7216   -0.8393    1.0502 H   0  0  0  0  0  0  0  0  0  0  0  0
    6.3004   -2.2787    0.1230 H   0  0  0  0  0  0  0  0  0  0  0  0
    4.9475    0.5479    2.1186 H   0  0  0  0  0  0  0  0  0  0  0  0
    2.6247    1.2688    2.0852 H   0  0  0  0  0  0  0  0  0  0  0  0
  1  2  1  0
  2  3  2  0
  2  4  1  0
  4  5  1  0
  5  6  2  0
  5  7  1  0
  7  8  1  0
  8  9  1  0
  9 10  1  0
 10 11  2  0
 11 12  1  0
 12 13  2  0
 13 14  1  0
 14 15  1  0
 14 16  2  0
  9 17  1  0
 17 18  1  0
 18 19  1  0
 18 20  2  0
 17 21  1  0
 21 22  1  0
 22 23  2  0
 23 24  1  0
 24 25  2  0
 25 26  1  0
 25 27  1  0
 27 28  2  0
 21  7  1  0
 28 22  1  0
 16 10  1  0
  1 29  1  0
  1 30  1  0
  1 31  1  0
  4 32  1  0
  7 33  1  0
  8 34  1  0
  8 35  1  0
  9 36  1  0
 11 37  1  0
 12 38  1  0
 13 39  1  0
 15 40  1  0
 15 41  1  0
 15 42  1  0
 16 43  1  0
 19 44  1  0
 19 45  1  0
 19 46  1  0
 21 47  1  0
 23 48  1  0
 24 49  1  0
 26 50  1  0
 26 51  1  0
 26 52  1  0
 27 53  1  0
 28 54  1  0
M  END
>  <smiles>  (7) 
CC(=O)NC(=O)C1CC(c2cccc(C)c2)N(C(C)=O)C1c1ccc(C)cc1

>  <mol_id>  (7) 
run14a_mol_2

>  <run_id>  (7) 
run14a

>  <original_index>  (7) 
2

>  <Agent>  (7) 
14.467

>  <Prior>  (7) 
12.326

>  <Target>  (7) 
109.8391

>  <Score>  (7) 
0.8144342

>  <SMILES>  (7) 
CC(=O)NC(=O)C1CC(c2cccc(C)c2)N(C(C)=O)C1c1ccc(C)cc1

>  <SMILES_state>  (7) 
1.0

>  <Input_Scaffold>  (7) 
c1ccc([*])cc1C1N([*])C(c2ccc([*])cc2)C(C(=O)N[*])C1

>  <R-groups>  (7) 
C*|CC(=O)*|C*|C(C)(=O)*

>  <Scaffold>  (7) 
c1ccc(C2CCC(c3ccccc3)N2)cc1

>  <DENV_Activity>  (7) 
0.9533081

>  <DENV_Activity (raw)>  (7) 
7.5263

>  <Stereo_Centers>  (7) 
1e-05

>  <Stereo_Centers (raw)>  (7) 
3.0

>  <QED>  (7) 
0.8870978

>  <QED (raw)>  (7) 
0.8871

>  <SA>  (7) 
0.3511029

>  <SA (raw)>  (7) 
3.4

>  <MW>  (7) 
0.9993863

>  <MW (raw)>  (7) 
378.472

>  <Heavy_Atoms>  (7) 
0.9281377

>  <Heavy_Atoms (raw)>  (7) 
28.0

>  <LogP>  (7) 
0.9982895

>  <LogP (raw)>  (7) 
3.6169

>  <TPSA>  (7) 
0.9999992

>  <TPSA (raw)>  (7) 
66.48

>  <HBA>  (7) 
0.97891

>  <HBA (raw)>  (7) 
3.0

>  <HBD>  (7) 
0.9467598

>  <HBD (raw)>  (7) 
1.0

>  <Rotatable_Bonds>  (7) 
0.8720069

>  <Rotatable_Bonds (raw)>  (7) 
3.0

>  <Ring_Count>  (7) 
0.8720069

>  <Ring_Count (raw)>  (7) 
3.0

>  <Aromatic_Rings>  (7) 
0.5

>  <Aromatic_Rings (raw)>  (7) 
2.0

>  <Stability_Alerts>  (7) 
1.0

>  <Stability_Alerts (raw)>  (7) 
1.0

>  <matchting_patterns (Stability_Alerts)>  (7) 
[]

>  <step>  (7) 
1.0

$$$$
run14a_mol_2
     RDKit          3D

 54 56  0  0  0  0  0  0  0  0999 V2000
   -1.8333    6.1776    1.2671 C   0  0  0  0  0  0  0  0  0  0  0  0
   -1.5303    5.2833    0.0923 C   0  0  0  0  0  0  0  0  0  0  0  0
   -1.3864    5.7438   -1.0332 O   0  0  0  0  0  0  0  0  0  0  0  0
   -1.3337    3.9648    0.4597 N   0  0  0  0  0  0  0  0  0  0  0  0
   -1.3415    2.8886   -0.4166 C   0  0  0  0  0  0  0  0  0  0  0  0
   -1.5998    2.9536   -1.6108 O   0  0  0  0  0  0  0  0  0  0  0  0
   -0.9307    1.5874    0.2645 C   0  0  0  0  0  0  0  0  0  0  0  0
    0.5966    1.5241    0.3200 C   0  0  0  0  0  0  0  0  0  0  0  0
    0.9939    0.8112   -0.9829 C   0  0  0  0  0  0  0  0  0  0  0  0
    2.2904    0.0539   -0.7784 C   0  0  0  0  0  0  0  0  0  0  0  0
    3.5093    0.6816   -1.0759 C   0  0  0  0  0  0  0  0  0  0  0  0
    4.7184    0.0150   -0.8775 C   0  0  0  0  0  0  0  0  0  0  0  0
    4.7272   -1.2833   -0.3698 C   0  0  0  0  0  0  0  0  0  0  0  0
    3.5272   -1.9233   -0.0453 C   0  0  0  0  0  0  0  0  0  0  0  0
    3.5294   -3.3349    0.4630 C   0  0  0  0  0  0  0  0  0  0  0  0
    2.3159   -1.2522   -0.2602 C   0  0  0  0  0  0  0  0  0  0  0  0
   -0.1604   -0.0111   -1.3406 N   0  0  0  0  0  0  0  0  0  0  0  0
   -0.3457   -0.6449   -2.5604 C   0  0  0  0  0  0  0  0  0  0  0  0
    0.8450   -0.7678   -3.4785 C   0  0  0  0  0  0  0  0  0  0  0  0
   -1.4312   -1.1163   -2.9047 O   0  0  0  0  0  0  0  0  0  0  0  0
   -1.3392    0.3440   -0.5477 C   0  0  0  0  0  0  0  0  0  0  0  0
   -1.8179   -0.8244    0.3114 C   0  0  0  0  0  0  0  0  0  0  0  0
   -1.1645   -1.2445    1.4791 C   0  0  0  0  0  0  0  0  0  0  0  0
   -1.6493   -2.3216    2.2296 C   0  0  0  0  0  0  0  0  0  0  0  0
   -2.8015   -3.0051    1.8328 C   0  0  0  0  0  0  0  0  0  0  0  0
   -3.2967   -4.1851    2.6140 C   0  0  0  0  0  0  0  0  0  0  0  0
   -3.4431   -2.6151    0.6554 C   0  0  0  0  0  0  0  0  0  0  0  0
   -2.9580   -1.5387   -0.0926 C   0  0  0  0  0  0  0  0  0  0  0  0
   -2.4635    7.0077    0.9354 H   0  0  0  0  0  0  0  0  0  0  0  0
   -0.8971    6.5669    1.6756 H   0  0  0  0  0  0  0  0  0  0  0  0
   -2.3732    5.6340    2.0477 H   0  0  0  0  0  0  0  0  0  0  0  0
   -1.3101    3.7616    1.4479 H   0  0  0  0  0  0  0  0  0  0  0  0
   -1.3732    1.5860    1.2681 H   0  0  0  0  0  0  0  0  0  0  0  0
    0.9122    0.9588    1.2038 H   0  0  0  0  0  0  0  0  0  0  0  0
    1.0785    2.5060    0.3920 H   0  0  0  0  0  0  0  0  0  0  0  0
    1.1132    1.5509   -1.7852 H   0  0  0  0  0  0  0  0  0  0  0  0
    3.5260    1.6944   -1.4737 H   0  0  0  0  0  0  0  0  0  0  0  0
    5.6564    0.5063   -1.1237 H   0  0  0  0  0  0  0  0  0  0  0  0
    5.6774   -1.7944   -0.2312 H   0  0  0  0  0  0  0  0  0  0  0  0
    3.4546   -4.0343   -0.3753 H   0  0  0  0  0  0  0  0  0  0  0  0
    4.4469   -3.5483    1.0213 H   0  0  0  0  0  0  0  0  0  0  0  0
    2.6885   -3.5052    1.1437 H   0  0  0  0  0  0  0  0  0  0  0  0
    1.3812   -1.7632   -0.0339 H   0  0  0  0  0  0  0  0  0  0  0  0
    1.5410   -1.5161   -3.0943 H   0  0  0  0  0  0  0  0  0  0  0  0
    1.3442    0.1935   -3.6151 H   0  0  0  0  0  0  0  0  0  0  0  0
    0.5008   -1.0980   -4.4641 H   0  0  0  0  0  0  0  0  0  0  0  0
   -2.1560    0.6045   -1.2333 H   0  0  0  0  0  0  0  0  0  0  0  0
   -0.2585   -0.7585    1.8235 H   0  0  0  0  0  0  0  0  0  0  0  0
   -1.1130   -2.6290    3.1248 H   0  0  0  0  0  0  0  0  0  0  0  0
   -3.0680   -4.0720    3.6790 H   0  0  0  0  0  0  0  0  0  0  0  0
   -4.3836   -4.2845    2.5246 H   0  0  0  0  0  0  0  0  0  0  0  0
   -2.8259   -5.1020    2.2464 H   0  0  0  0  0  0  0  0  0  0  0  0
   -4.3202   -3.1518    0.3006 H   0  0  0  0  0  0  0  0  0  0  0  0
   -3.4689   -1.2736   -1.0183 H   0  0  0  0  0  0  0  0  0  0  0  0
  1  2  1  0
  2  3  2  0
  2  4  1  0
  4  5  1  0
  5  6  2  0
  5  7  1  0
  7  8  1  0
  8  9  1  0
  9 10  1  0
 10 11  2  0
 11 12  1  0
 12 13  2  0
 13 14  1  0
 14 15  1  0
 14 16  2  0
  9 17  1  0
 17 18  1  0
 18 19  1  0
 18 20  2  0
 17 21  1  0
 21 22  1  0
 22 23  2  0
 23 24  1  0
 24 25  2  0
 25 26  1  0
 25 27  1  0
 27 28  2  0
 21  7  1  0
 28 22  1  0
 16 10  1  0
  1 29  1  0
  1 30  1  0
  1 31  1  0
  4 32  1  0
  7 33  1  0
  8 34  1  0
  8 35  1  0
  9 36  1  0
 11 37  1  0
 12 38  1  0
 13 39  1  0
 15 40  1  0
 15 41  1  0
 15 42  1  0
 16 43  1  0
 19 44  1  0
 19 45  1  0
 19 46  1  0
 21 47  1  0
 23 48  1  0
 24 49  1  0
 26 50  1  0
 26 51  1  0
 26 52  1  0
 27 53  1  0
 28 54  1  0
M  END
>  <smiles>  (8) 
CC(=O)NC(=O)C1CC(c2cccc(C)c2)N(C(C)=O)C1c1ccc(C)cc1

>  <mol_id>  (8) 
run14a_mol_2

>  <run_id>  (8) 
run14a

>  <original_index>  (8) 
2

>  <Agent>  (8) 
14.467

>  <Prior>  (8) 
12.326

>  <Target>  (8) 
109.8391

>  <Score>  (8) 
0.8144342

>  <SMILES>  (8) 
CC(=O)NC(=O)C1CC(c2cccc(C)c2)N(C(C)=O)C1c1ccc(C)cc1

>  <SMILES_state>  (8) 
1.0

>  <Input_Scaffold>  (8) 
c1ccc([*])cc1C1N([*])C(c2ccc([*])cc2)C(C(=O)N[*])C1

>  <R-groups>  (8) 
C*|CC(=O)*|C*|C(C)(=O)*

>  <Scaffold>  (8) 
c1ccc(C2CCC(c3ccccc3)N2)cc1

>  <DENV_Activity>  (8) 
0.9533081

>  <DENV_Activity (raw)>  (8) 
7.5263

>  <Stereo_Centers>  (8) 
1e-05

>  <Stereo_Centers (raw)>  (8) 
3.0

>  <QED>  (8) 
0.8870978

>  <QED (raw)>  (8) 
0.8871

>  <SA>  (8) 
0.3511029

>  <SA (raw)>  (8) 
3.4

>  <MW>  (8) 
0.9993863

>  <MW (raw)>  (8) 
378.472

>  <Heavy_Atoms>  (8) 
0.9281377

>  <Heavy_Atoms (raw)>  (8) 
28.0

>  <LogP>  (8) 
0.9982895

>  <LogP (raw)>  (8) 
3.6169

>  <TPSA>  (8) 
0.9999992

>  <TPSA (raw)>  (8) 
66.48

>  <HBA>  (8) 
0.97891

>  <HBA (raw)>  (8) 
3.0

>  <HBD>  (8) 
0.9467598

>  <HBD (raw)>  (8) 
1.0

>  <Rotatable_Bonds>  (8) 
0.8720069

>  <Rotatable_Bonds (raw)>  (8) 
3.0

>  <Ring_Count>  (8) 
0.8720069

>  <Ring_Count (raw)>  (8) 
3.0

>  <Aromatic_Rings>  (8) 
0.5

>  <Aromatic_Rings (raw)>  (8) 
2.0

>  <Stability_Alerts>  (8) 
1.0

>  <Stability_Alerts (raw)>  (8) 
1.0

>  <matchting_patterns (Stability_Alerts)>  (8) 
[]

>  <step>  (8) 
1.0

$$$$
run14a_mol_2
     RDKit          3D

 54 56  0  0  0  0  0  0  0  0999 V2000
   -3.1616    4.3096    2.7324 C   0  0  0  0  0  0  0  0  0  0  0  0
   -3.3766    3.4520    1.5125 C   0  0  0  0  0  0  0  0  0  0  0  0
   -4.5006    3.1170    1.1592 O   0  0  0  0  0  0  0  0  0  0  0  0
   -2.1944    3.0186    0.9443 N   0  0  0  0  0  0  0  0  0  0  0  0
   -2.1096    2.4251   -0.3001 C   0  0  0  0  0  0  0  0  0  0  0  0
   -2.9243    2.5986   -1.2021 O   0  0  0  0  0  0  0  0  0  0  0  0
   -0.8650    1.5865   -0.5489 C   0  0  0  0  0  0  0  0  0  0  0  0
    0.4392    2.3846   -0.4403 C   0  0  0  0  0  0  0  0  0  0  0  0
    1.4768    1.3646    0.0371 C   0  0  0  0  0  0  0  0  0  0  0  0
    2.2628    0.6253   -1.0379 C   0  0  0  0  0  0  0  0  0  0  0  0
    1.8656    0.5439   -2.3805 C   0  0  0  0  0  0  0  0  0  0  0  0
    2.6288   -0.1622   -3.3144 C   0  0  0  0  0  0  0  0  0  0  0  0
    3.8018   -0.8037   -2.9249 C   0  0  0  0  0  0  0  0  0  0  0  0
    4.2184   -0.7537   -1.5938 C   0  0  0  0  0  0  0  0  0  0  0  0
    5.4960   -1.4142   -1.1678 C   0  0  0  0  0  0  0  0  0  0  0  0
    3.4537   -0.0299   -0.6676 C   0  0  0  0  0  0  0  0  0  0  0  0
    0.6865    0.4469    0.8623 N   0  0  0  0  0  0  0  0  0  0  0  0
    1.2046   -0.0793    2.0307 C   0  0  0  0  0  0  0  0  0  0  0  0
    0.3166   -0.9910    2.8407 C   0  0  0  0  0  0  0  0  0  0  0  0
    2.3382    0.1897    2.4289 O   0  0  0  0  0  0  0  0  0  0  0  0
   -0.7290    0.4470    0.4785 C   0  0  0  0  0  0  0  0  0  0  0  0
   -1.2504   -0.8653   -0.0808 C   0  0  0  0  0  0  0  0  0  0  0  0
   -0.4134   -1.8480   -0.6276 C   0  0  0  0  0  0  0  0  0  0  0  0
   -0.9427   -3.0314   -1.1504 C   0  0  0  0  0  0  0  0  0  0  0  0
   -2.3225   -3.2531   -1.1546 C   0  0  0  0  0  0  0  0  0  0  0  0
   -2.8862   -4.5355   -1.6897 C   0  0  0  0  0  0  0  0  0  0  0  0
   -3.1643   -2.2822   -0.6058 C   0  0  0  0  0  0  0  0  0  0  0  0
   -2.6359   -1.0994   -0.0818 C   0  0  0  0  0  0  0  0  0  0  0  0
   -3.1743    3.6778    3.6242 H   0  0  0  0  0  0  0  0  0  0  0  0
   -2.2071    4.8411    2.6782 H   0  0  0  0  0  0  0  0  0  0  0  0
   -3.9609    5.0534    2.7953 H   0  0  0  0  0  0  0  0  0  0  0  0
   -1.3653    3.0849    1.5149 H   0  0  0  0  0  0  0  0  0  0  0  0
   -0.9524    1.1806   -1.5648 H   0  0  0  0  0  0  0  0  0  0  0  0
    0.3528    3.1781    0.3113 H   0  0  0  0  0  0  0  0  0  0  0  0
    0.7031    2.8861   -1.3770 H   0  0  0  0  0  0  0  0  0  0  0  0
    2.2058    1.8969    0.6624 H   0  0  0  0  0  0  0  0  0  0  0  0
    0.9583    1.0205   -2.7382 H   0  0  0  0  0  0  0  0  0  0  0  0
    2.3048   -0.2113   -4.3512 H   0  0  0  0  0  0  0  0  0  0  0  0
    4.3865   -1.3436   -3.6659 H   0  0  0  0  0  0  0  0  0  0  0  0
    6.3257   -0.7042   -1.2380 H   0  0  0  0  0  0  0  0  0  0  0  0
    5.7184   -2.2809   -1.7992 H   0  0  0  0  0  0  0  0  0  0  0  0
    5.4230   -1.7748   -0.1364 H   0  0  0  0  0  0  0  0  0  0  0  0
    3.7930    0.0205    0.3673 H   0  0  0  0  0  0  0  0  0  0  0  0
    0.8669   -1.3337    3.7229 H   0  0  0  0  0  0  0  0  0  0  0  0
   -0.5720   -0.4583    3.1864 H   0  0  0  0  0  0  0  0  0  0  0  0
    0.0376   -1.8724    2.2609 H   0  0  0  0  0  0  0  0  0  0  0  0
   -1.2952    0.6571    1.3933 H   0  0  0  0  0  0  0  0  0  0  0  0
    0.6657   -1.7160   -0.6523 H   0  0  0  0  0  0  0  0  0  0  0  0
   -0.2648   -3.7776   -1.5597 H   0  0  0  0  0  0  0  0  0  0  0  0
   -2.9425   -5.2815   -0.8910 H   0  0  0  0  0  0  0  0  0  0  0  0
   -2.2620   -4.9293   -2.4987 H   0  0  0  0  0  0  0  0  0  0  0  0
   -3.8894   -4.3801   -2.1006 H   0  0  0  0  0  0  0  0  0  0  0  0
   -4.2416   -2.4348   -0.5894 H   0  0  0  0  0  0  0  0  0  0  0  0
   -3.3269   -0.3589    0.3195 H   0  0  0  0  0  0  0  0  0  0  0  0
  1  2  1  0
  2  3  2  0
  2  4  1  0
  4  5  1  0
  5  6  2  0
  5  7  1  0
  7  8  1  0
  8  9  1  0
  9 10  1  0
 10 11  2  0
 11 12  1  0
 12 13  2  0
 13 14  1  0
 14 15  1  0
 14 16  2  0
  9 17  1  0
 17 18  1  0
 18 19  1  0
 18 20  2  0
 17 21  1  0
 21 22  1  0
 22 23  2  0
 23 24  1  0
 24 25  2  0
 25 26  1  0
 25 27  1  0
 27 28  2  0
 21  7  1  0
 28 22  1  0
 16 10  1  0
  1 29  1  0
  1 30  1  0
  1 31  1  0
  4 32  1  0
  7 33  1  0
  8 34  1  0
  8 35  1  0
  9 36  1  0
 11 37  1  0
 12 38  1  0
 13 39  1  0
 15 40  1  0
 15 41  1  0
 15 42  1  0
 16 43  1  0
 19 44  1  0
 19 45  1  0
 19 46  1  0
 21 47  1  0
 23 48  1  0
 24 49  1  0
 26 50  1  0
 26 51  1  0
 26 52  1  0
 27 53  1  0
 28 54  1  0
M  END
>  <smiles>  (9) 
CC(=O)NC(=O)C1CC(c2cccc(C)c2)N(C(C)=O)C1c1ccc(C)cc1

>  <mol_id>  (9) 
run14a_mol_2

>  <run_id>  (9) 
run14a

>  <original_index>  (9) 
2

>  <Agent>  (9) 
14.467

>  <Prior>  (9) 
12.326

>  <Target>  (9) 
109.8391

>  <Score>  (9) 
0.8144342

>  <SMILES>  (9) 
CC(=O)NC(=O)C1CC(c2cccc(C)c2)N(C(C)=O)C1c1ccc(C)cc1

>  <SMILES_state>  (9) 
1.0

>  <Input_Scaffold>  (9) 
c1ccc([*])cc1C1N([*])C(c2ccc([*])cc2)C(C(=O)N[*])C1

>  <R-groups>  (9) 
C*|CC(=O)*|C*|C(C)(=O)*

>  <Scaffold>  (9) 
c1ccc(C2CCC(c3ccccc3)N2)cc1

>  <DENV_Activity>  (9) 
0.9533081

>  <DENV_Activity (raw)>  (9) 
7.5263

>  <Stereo_Centers>  (9) 
1e-05

>  <Stereo_Centers (raw)>  (9) 
3.0

>  <QED>  (9) 
0.8870978

>  <QED (raw)>  (9) 
0.8871

>  <SA>  (9) 
0.3511029

>  <SA (raw)>  (9) 
3.4

>  <MW>  (9) 
0.9993863

>  <MW (raw)>  (9) 
378.472

>  <Heavy_Atoms>  (9) 
0.9281377

>  <Heavy_Atoms (raw)>  (9) 
28.0

>  <LogP>  (9) 
0.9982895

>  <LogP (raw)>  (9) 
3.6169

>  <TPSA>  (9) 
0.9999992

>  <TPSA (raw)>  (9) 
66.48

>  <HBA>  (9) 
0.97891

>  <HBA (raw)>  (9) 
3.0

>  <HBD>  (9) 
0.9467598

>  <HBD (raw)>  (9) 
1.0

>  <Rotatable_Bonds>  (9) 
0.8720069

>  <Rotatable_Bonds (raw)>  (9) 
3.0

>  <Ring_Count>  (9) 
0.8720069

>  <Ring_Count (raw)>  (9) 
3.0

>  <Aromatic_Rings>  (9) 
0.5

>  <Aromatic_Rings (raw)>  (9) 
2.0

>  <Stability_Alerts>  (9) 
1.0

>  <Stability_Alerts (raw)>  (9) 
1.0

>  <matchting_patterns (Stability_Alerts)>  (9) 
[]

>  <step>  (9) 
1.0

$$$$
